mobley_5627459.pdb
 OpenBabel09222014463D

 13 12  0  0  0  0  0  0  0  0999 V2000
   -0.4390   -0.8920    0.4600 C   0  0  0  0  0  0  0  0  0  0  0  0
   -1.9420   -0.7230    0.6490 C   0  0  0  0  0  0  0  0  0  0  0  0
   -2.5620   -1.9750    1.2570 C   0  0  0  0  0  0  0  0  0  0  0  0
   -2.1990    0.5040    1.5020 C   0  0  0  0  0  0  0  0  0  0  0  0
   -2.7800    0.4930    2.5830 O   0  0  0  0  0  0  0  0  0  0  0  0
    0.0040    0.0090    0.0220 H   0  0  0  0  0  0  0  0  0  0  0  0
   -0.2210   -1.7330   -0.2060 H   0  0  0  0  0  0  0  0  0  0  0  0
    0.0630   -1.0730    1.4170 H   0  0  0  0  0  0  0  0  0  0  0  0
   -2.4060   -0.5330   -0.3260 H   0  0  0  0  0  0  0  0  0  0  0  0
   -3.6420   -1.8500    1.3920 H   0  0  0  0  0  0  0  0  0  0  0  0
   -2.1240   -2.1900    2.2380 H   0  0  0  0  0  0  0  0  0  0  0  0
   -2.3970   -2.8520    0.6220 H   0  0  0  0  0  0  0  0  0  0  0  0
   -1.8590    1.4600    1.0660 H   0  0  0  0  0  0  0  0  0  0  0  0
  1  2  1  0  0  0  0
  1  6  1  0  0  0  0
  1  7  1  0  0  0  0
  1  8  1  0  0  0  0
  2  3  1  0  0  0  0
  2  4  1  0  0  0  0
  2  9  1  0  0  0  0
  3 10  1  0  0  0  0
  3 11  1  0  0  0  0
  3 12  1  0  0  0  0
  4  5  2  0  0  0  0
  4 13  1  0  0  0  0
M  END
>  <COMPND>
    mobley_5627459 

>  <AUTHOR>
    GENERATED BY OPEN BABEL 2.3.2

>  <MASTER>
        0    0    0    0    0    0    0    0   13    0   13    0

$$$$
