mobley_486214.pdb
 OpenBabel09222014463D

 21 21  0  0  0  0  0  0  0  0999 V2000
    1.3510   -2.1280   -2.1490 C   0  0  0  0  0  0  0  0  0  0  0  0
    1.9390   -1.0220   -1.4740 O   0  0  0  0  0  0  0  0  0  0  0  0
    1.8850   -1.0360   -0.1120 C   0  0  0  0  0  0  0  0  0  0  0  0
    2.9210   -1.6310    0.6080 C   0  0  0  0  0  0  0  0  0  0  0  0
    2.8780   -1.6520    2.0020 C   0  0  0  0  0  0  0  0  0  0  0  0
    1.8000   -1.0790    2.6760 C   0  0  0  0  0  0  0  0  0  0  0  0
    0.7640   -0.4840    1.9550 C   0  0  0  0  0  0  0  0  0  0  0  0
    0.8070   -0.4630    0.5610 C   0  0  0  0  0  0  0  0  0  0  0  0
   -0.2060    0.1180   -0.1430 O   0  0  0  0  0  0  0  0  0  0  0  0
   -0.2840    0.0720    2.6250 O   0  0  0  0  0  0  0  0  0  0  0  0
   -0.2490    0.0080    4.0500 C   0  0  0  0  0  0  0  0  0  0  0  0
    1.4610   -1.9970   -3.2280 H   0  0  0  0  0  0  0  0  0  0  0  0
    0.2930   -2.1970   -1.8850 H   0  0  0  0  0  0  0  0  0  0  0  0
    1.8610   -3.0440   -1.8430 H   0  0  0  0  0  0  0  0  0  0  0  0
    3.7640   -2.0790    0.0900 H   0  0  0  0  0  0  0  0  0  0  0  0
    3.6850   -2.1150    2.5630 H   0  0  0  0  0  0  0  0  0  0  0  0
    1.7730   -1.0990    3.7620 H   0  0  0  0  0  0  0  0  0  0  0  0
   -0.8760    0.4690    0.4630 H   0  0  0  0  0  0  0  0  0  0  0  0
   -1.1430    0.4880    4.4480 H   0  0  0  0  0  0  0  0  0  0  0  0
    0.6480    0.5120    4.4060 H   0  0  0  0  0  0  0  0  0  0  0  0
   -0.2280   -1.0400    4.3470 H   0  0  0  0  0  0  0  0  0  0  0  0
  1  2  1  0  0  0  0
  1 12  1  0  0  0  0
  1 13  1  0  0  0  0
  1 14  1  0  0  0  0
  2  3  1  0  0  0  0
  3  8  2  0  0  0  0
  3  4  1  0  0  0  0
  4  5  2  0  0  0  0
  4 15  1  0  0  0  0
  5  6  1  0  0  0  0
  5 16  1  0  0  0  0
  6  7  2  0  0  0  0
  6 17  1  0  0  0  0
  7  8  1  0  0  0  0
  7 10  1  0  0  0  0
  8  9  1  0  0  0  0
  9 18  1  0  0  0  0
 10 11  1  0  0  0  0
 11 19  1  0  0  0  0
 11 20  1  0  0  0  0
 11 21  1  0  0  0  0
M  END
>  <COMPND>
    mobley_486214 

>  <AUTHOR>
    GENERATED BY OPEN BABEL 2.3.2

>  <MASTER>
        0    0    0    0    0    0    0    0   21    0   21    0

$$$$
