mobley_9571888.pdb
 OpenBabel09222014463D

 25 27  0  0  1  0  0  0  0  0999 V2000
    2.0220    0.4850    0.3570 C   0  0  0  0  0  0  0  0  0  0  0  0
    0.7980   -0.3930    0.6390 C   0  0  2  0  0  0  0  0  0  0  0  0
    1.1750   -1.2880    1.1540 H   0  0  0  0  0  0  0  0  0  0  0  0
   -0.0180   -0.9030   -0.6190 C   0  0  2  0  0  0  0  0  0  0  0  0
    0.0350   -2.0020   -0.6030 H   0  0  0  0  0  0  0  0  0  0  0  0
    0.4940   -0.4700   -1.9960 C   0  0  0  0  0  0  0  0  0  0  0  0
    1.7650   -1.0670   -2.2510 O   0  0  0  0  0  0  0  0  0  0  0  0
    3.0450   -0.1460   -1.9180 S   0  0  2  0  0  0  0  0  0  0  0  0
    4.2590   -0.8760   -2.4100 O   0  0  0  0  0  0  0  0  0  0  0  0
    3.0240   -0.2810   -0.3120 O   0  0  0  0  0  0  0  0  0  0  0  0
   -1.4800   -0.4440   -0.2730 C   0  0  2  0  0  0  0  0  0  0  0  0
   -1.5000    1.0720   -0.3050 C   0  0  0  0  0  0  0  0  0  0  0  0
   -0.8090    1.5040    0.7580 C   0  0  0  0  0  0  0  0  0  0  0  0
   -0.3220    0.2800    1.5090 C   0  0  1  0  0  0  0  0  0  0  0  0
   -1.5450   -0.6610    1.2720 C   0  0  0  0  0  0  0  0  0  0  0  0
   -1.3070   -2.3560    1.8060 Cl  0  0  0  0  0  0  0  0  0  0  0  0
   -3.0790   -0.0990    2.0400 Cl  0  0  0  0  0  0  0  0  0  0  0  0
    0.1100    0.5160    3.1920 Cl  0  0  0  0  0  0  0  0  0  0  0  0
   -0.4790    3.1020    1.2080 Cl  0  0  0  0  0  0  0  0  0  0  0  0
   -2.2450    1.9970   -1.5110 Cl  0  0  0  0  0  0  0  0  0  0  0  0
   -2.7330   -1.2630   -1.1850 Cl  0  0  0  0  0  0  0  0  0  0  0  0
    2.4630    0.8080    1.3060 H   0  0  0  0  0  0  0  0  0  0  0  0
    1.7780    1.3990   -0.1980 H   0  0  0  0  0  0  0  0  0  0  0  0
   -0.1840   -0.8460   -2.7700 H   0  0  0  0  0  0  0  0  0  0  0  0
    0.5300    0.6190   -2.1190 H   0  0  0  0  0  0  0  0  0  0  0  0
  1 10  1  0  0  0  0
  1  2  1  0  0  0  0
  1 22  1  0  0  0  0
  1 23  1  0  0  0  0
  2  3  1  1  0  0  0
  2 14  1  0  0  0  0
  2  4  1  0  0  0  0
  4  5  1  1  0  0  0
  4  6  1  0  0  0  0
  4 11  1  0  0  0  0
  6  7  1  0  0  0  0
  6 24  1  0  0  0  0
  6 25  1  0  0  0  0
  7  8  1  0  0  0  0
  8  9  1  6  0  0  0
  8 10  1  0  0  0  0
 11 15  1  0  0  0  0
 11 12  1  0  0  0  0
 11 21  1  6  0  0  0
 12 13  2  0  0  0  0
 12 20  1  0  0  0  0
 13 14  1  0  0  0  0
 13 19  1  0  0  0  0
 14 15  1  0  0  0  0
 14 18  1  1  0  0  0
 15 16  1  0  0  0  0
 15 17  1  0  0  0  0
M  END
>  <COMPND>
    mobley_9571888 

>  <AUTHOR>
    GENERATED BY OPEN BABEL 2.3.2

>  <MASTER>
        0    0    0    0    0    0    0    0   25    0   25    0

$$$$
