mobley_4305650.pdb
 OpenBabel09222014463D

  9  8  0  0  0  0  0  0  0  0999 V2000
    0.6420   -0.7480    0.4850 C   0  0  0  0  0  0  0  0  0  0  0  0
    1.1890   -0.1850    1.7560 C   0  0  0  0  0  0  0  0  0  0  0  0
    2.0230   -1.2470    2.3250 C   0  0  0  0  0  0  0  0  0  0  0  0
    2.6860   -2.0830    2.7820 N   0  0  0  0  0  0  0  0  0  0  0  0
   -0.0050   -0.0290   -0.0310 H   0  0  0  0  0  0  0  0  0  0  0  0
    1.4710   -0.9820   -0.1980 H   0  0  0  0  0  0  0  0  0  0  0  0
    0.0950   -1.6820    0.6580 H   0  0  0  0  0  0  0  0  0  0  0  0
    0.3740    0.0820    2.4370 H   0  0  0  0  0  0  0  0  0  0  0  0
    1.7800    0.7130    1.5530 H   0  0  0  0  0  0  0  0  0  0  0  0
  1  2  1  0  0  0  0
  1  5  1  0  0  0  0
  1  6  1  0  0  0  0
  1  7  1  0  0  0  0
  2  3  1  0  0  0  0
  2  8  1  0  0  0  0
  2  9  1  0  0  0  0
  3  4  3  0  0  0  0
M  END
>  <COMPND>
    mobley_4305650 

>  <AUTHOR>
    GENERATED BY OPEN BABEL 2.3.2

>  <MASTER>
        0    0    0    0    0    0    0    0    9    0    9    0

$$$$
