mobley_7608435.pdb
 OpenBabel09222014463D

 29 28  0  0  0  0  0  0  0  0999 V2000
    0.7440    0.1620   -0.7800 C   0  0  0  0  0  0  0  0  0  0  0  0
    1.0050   -1.1130   -1.5650 C   0  0  0  0  0  0  0  0  0  0  0  0
    1.5220   -2.2320   -0.6610 C   0  0  0  0  0  0  0  0  0  0  0  0
    1.7830   -3.5130   -1.4540 C   0  0  0  0  0  0  0  0  0  0  0  0
    2.3010   -4.6320   -0.5490 C   0  0  0  0  0  0  0  0  0  0  0  0
    2.5620   -5.9150   -1.3450 C   0  0  0  0  0  0  0  0  0  0  0  0
    3.0810   -7.0530   -0.4670 C   0  0  0  0  0  0  0  0  0  0  0  0
    3.3440   -8.3280   -1.2370 C   0  0  0  0  0  0  0  0  0  0  0  0
    3.1720   -8.4730   -2.4390 O   0  0  0  0  0  0  0  0  0  0  0  0
    3.8320   -9.2710   -0.3780 O   0  0  0  0  0  0  0  0  0  0  0  0
    4.1600  -10.5330   -0.9700 C   0  0  0  0  0  0  0  0  0  0  0  0
    0.3740    0.9580   -1.4350 H   0  0  0  0  0  0  0  0  0  0  0  0
    1.6580    0.5160   -0.2910 H   0  0  0  0  0  0  0  0  0  0  0  0
   -0.0080   -0.0170   -0.0050 H   0  0  0  0  0  0  0  0  0  0  0  0
    0.0770   -1.4300   -2.0550 H   0  0  0  0  0  0  0  0  0  0  0  0
    1.7350   -0.9060   -2.3560 H   0  0  0  0  0  0  0  0  0  0  0  0
    2.4480   -1.9080   -0.1700 H   0  0  0  0  0  0  0  0  0  0  0  0
    0.7900   -2.4320    0.1310 H   0  0  0  0  0  0  0  0  0  0  0  0
    2.5150   -3.3120   -2.2460 H   0  0  0  0  0  0  0  0  0  0  0  0
    0.8570   -3.8360   -1.9440 H   0  0  0  0  0  0  0  0  0  0  0  0
    3.2290   -4.3090   -0.0620 H   0  0  0  0  0  0  0  0  0  0  0  0
    1.5710   -4.8240    0.2460 H   0  0  0  0  0  0  0  0  0  0  0  0
    1.6460   -6.2230   -1.8640 H   0  0  0  0  0  0  0  0  0  0  0  0
    3.3110   -5.7050   -2.1190 H   0  0  0  0  0  0  0  0  0  0  0  0
    4.0300   -6.7490   -0.0100 H   0  0  0  0  0  0  0  0  0  0  0  0
    2.3610   -7.2580    0.3330 H   0  0  0  0  0  0  0  0  0  0  0  0
    4.5350  -11.1960   -0.1940 H   0  0  0  0  0  0  0  0  0  0  0  0
    4.9130  -10.3720   -1.7390 H   0  0  0  0  0  0  0  0  0  0  0  0
    3.2570  -10.9470   -1.4120 H   0  0  0  0  0  0  0  0  0  0  0  0
  1  2  1  0  0  0  0
  1 12  1  0  0  0  0
  1 13  1  0  0  0  0
  1 14  1  0  0  0  0
  2  3  1  0  0  0  0
  2 15  1  0  0  0  0
  2 16  1  0  0  0  0
  3  4  1  0  0  0  0
  3 17  1  0  0  0  0
  3 18  1  0  0  0  0
  4  5  1  0  0  0  0
  4 19  1  0  0  0  0
  4 20  1  0  0  0  0
  5  6  1  0  0  0  0
  5 21  1  0  0  0  0
  5 22  1  0  0  0  0
  6  7  1  0  0  0  0
  6 23  1  0  0  0  0
  6 24  1  0  0  0  0
  7  8  1  0  0  0  0
  7 25  1  0  0  0  0
  7 26  1  0  0  0  0
  8  9  2  0  0  0  0
  8 10  1  0  0  0  0
 10 11  1  0  0  0  0
 11 27  1  0  0  0  0
 11 28  1  0  0  0  0
 11 29  1  0  0  0  0
M  END
>  <COMPND>
    mobley_7608435 

>  <AUTHOR>
    GENERATED BY OPEN BABEL 2.3.2

>  <MASTER>
        0    0    0    0    0    0    0    0   29    0   29    0

$$$$
