mobley_52782.pdb
 OpenBabel09222014463D

 14 13  0  0  0  0  0  0  0  0999 V2000
   -2.1460   -0.1940   -0.1210 C   0  0  0  0  0  0  0  0  0  0  0  0
   -0.8940    0.4510    0.4420 C   0  0  0  0  0  0  0  0  0  0  0  0
   -0.8120    1.7920   -0.0250 O   0  0  0  0  0  0  0  0  0  0  0  0
    0.3340    2.4890    0.4490 N   0  0  0  0  0  0  0  0  0  0  0  0
    1.1090    1.8780    1.1880 O   0  5  0  0  0  0  0  0  0  0  0  0
    0.3920    3.6480    0.0370 O   0  5  0  0  0  0  0  0  0  0  0  0
   -3.2830    0.5410    0.3170 O   0  0  0  0  0  0  0  0  0  0  0  0
   -4.5160    0.0160   -0.1580 N   0  0  0  0  0  0  0  0  0  0  0  0
   -4.4720   -0.9870   -0.8750 O   0  5  0  0  0  0  0  0  0  0  0  0
   -5.4910    0.6610    0.2290 O   0  5  0  0  0  0  0  0  0  0  0  0
   -2.2510   -1.2250    0.2300 H   0  0  0  0  0  0  0  0  0  0  0  0
   -2.1270   -0.1760   -1.2140 H   0  0  0  0  0  0  0  0  0  0  0  0
    0.0050   -0.0800    0.1120 H   0  0  0  0  0  0  0  0  0  0  0  0
   -0.9310    0.4690    1.5350 H   0  0  0  0  0  0  0  0  0  0  0  0
  1  2  1  0  0  0  0
  1  7  1  0  0  0  0
  1 11  1  0  0  0  0
  1 12  1  0  0  0  0
  2  3  1  0  0  0  0
  2 13  1  0  0  0  0
  2 14  1  0  0  0  0
  3  4  1  0  0  0  0
  4  5  2  0  0  0  0
  4  6  2  0  0  0  0
  7  8  1  0  0  0  0
  8  9  2  0  0  0  0
  8 10  2  0  0  0  0
M  CHG  4   5  -1   6  -1   9  -1  10  -1
M  END
>  <COMPND>
    mobley_52782 

>  <AUTHOR>
    GENERATED BY OPEN BABEL 2.3.2

>  <MASTER>
        0    0    0    0    0    0    0    0   14    0   14    0

$$$$
