mobley_4043951.pdb
 OpenBabel09222014463D

 15 14  0  0  0  0  0  0  0  0999 V2000
    4.2250   -3.9910   -0.0060 C   0  0  0  0  0  0  0  0  0  0  0  0
    3.2900   -2.9170   -0.5420 C   0  0  0  0  0  0  0  0  0  0  0  0
    1.9940   -2.8510    0.2660 C   0  0  0  0  0  0  0  0  0  0  0  0
    1.0740   -1.7920   -0.2650 C   0  0  0  0  0  0  0  0  0  0  0  0
    0.6440   -0.7470    0.4510 C   0  0  0  0  0  0  0  0  0  0  0  0
    5.1500   -4.0320   -0.5900 H   0  0  0  0  0  0  0  0  0  0  0  0
    3.7450   -4.9730   -0.0620 H   0  0  0  0  0  0  0  0  0  0  0  0
    4.4850   -3.7980    1.0390 H   0  0  0  0  0  0  0  0  0  0  0  0
    3.8020   -1.9480   -0.5100 H   0  0  0  0  0  0  0  0  0  0  0  0
    3.0680   -3.1290   -1.5950 H   0  0  0  0  0  0  0  0  0  0  0  0
    2.2260   -2.6700    1.3230 H   0  0  0  0  0  0  0  0  0  0  0  0
    1.4760   -3.8170    0.2160 H   0  0  0  0  0  0  0  0  0  0  0  0
    0.7350   -1.8930   -1.2930 H   0  0  0  0  0  0  0  0  0  0  0  0
   -0.0210   -0.0030    0.0270 H   0  0  0  0  0  0  0  0  0  0  0  0
    0.9550   -0.6230    1.4830 H   0  0  0  0  0  0  0  0  0  0  0  0
  1  2  1  0  0  0  0
  1  6  1  0  0  0  0
  1  7  1  0  0  0  0
  1  8  1  0  0  0  0
  2  3  1  0  0  0  0
  2  9  1  0  0  0  0
  2 10  1  0  0  0  0
  3  4  1  0  0  0  0
  3 11  1  0  0  0  0
  3 12  1  0  0  0  0
  4  5  2  0  0  0  0
  4 13  1  0  0  0  0
  5 14  1  0  0  0  0
  5 15  1  0  0  0  0
M  END
>  <COMPND>
    mobley_4043951 

>  <AUTHOR>
    GENERATED BY OPEN BABEL 2.3.2

>  <MASTER>
        0    0    0    0    0    0    0    0   15    0   15    0

$$$$
