mobley_9705941.pdb
 OpenBabel09222014463D

 12 12  0  0  0  0  0  0  0  0999 V2000
   -1.8290   -2.2090   -0.4540 C   0  0  0  0  0  0  0  0  0  0  0  0
   -1.3500   -1.0950   -1.2990 C   0  0  0  0  0  0  0  0  0  0  0  0
   -0.4680   -0.0880   -0.9720 C   0  0  0  0  0  0  0  0  0  0  0  0
   -0.2530    0.8090   -2.0580 C   0  0  0  0  0  0  0  0  0  0  0  0
   -0.9780    0.4540   -3.1740 C   0  0  0  0  0  0  0  0  0  0  0  0
   -1.9150   -0.9560   -2.9100 S   0  0  0  0  0  0  0  0  0  0  0  0
   -1.1680   -3.0740   -0.5640 H   0  0  0  0  0  0  0  0  0  0  0  0
   -1.8560   -1.9170    0.6010 H   0  0  0  0  0  0  0  0  0  0  0  0
   -2.8460   -2.5040   -0.7340 H   0  0  0  0  0  0  0  0  0  0  0  0
    0.0020    0.0050   -0.0010 H   0  0  0  0  0  0  0  0  0  0  0  0
    0.4000    1.6710   -2.0230 H   0  0  0  0  0  0  0  0  0  0  0  0
   -1.0030    0.9540   -4.1310 H   0  0  0  0  0  0  0  0  0  0  0  0
  1  2  1  0  0  0  0
  1  7  1  0  0  0  0
  1  8  1  0  0  0  0
  1  9  1  0  0  0  0
  2  6  1  0  0  0  0
  2  3  2  0  0  0  0
  3  4  1  0  0  0  0
  3 10  1  0  0  0  0
  4  5  2  0  0  0  0
  4 11  1  0  0  0  0
  5  6  1  0  0  0  0
  5 12  1  0  0  0  0
M  END
>  <COMPND>
    mobley_9705941 

>  <AUTHOR>
    GENERATED BY OPEN BABEL 2.3.2

>  <MASTER>
        0    0    0    0    0    0    0    0   12    0   12    0

$$$$
