mobley_5732611.pdb
 OpenBabel09222014463D

 12 12  0  0  0  0  0  0  0  0999 V2000
   -0.2080    0.2980    0.1230 C   0  0  0  0  0  0  0  0  0  0  0  0
    0.6550   -0.7780   -0.3640 C   0  0  0  0  0  0  0  0  0  0  0  0
    1.9500   -0.7740   -0.8260 C   0  0  0  0  0  0  0  0  0  0  0  0
    2.3540   -2.0370   -1.1810 N   0  0  0  0  0  0  0  0  0  0  0  0
    1.3130   -2.8020   -0.9370 C   0  0  0  0  0  0  0  0  0  0  0  0
    0.2600   -2.0840   -0.4420 N   0  0  0  0  0  0  0  0  0  0  0  0
   -0.0880    0.4140    1.2050 H   0  0  0  0  0  0  0  0  0  0  0  0
    0.0380    1.2470   -0.3640 H   0  0  0  0  0  0  0  0  0  0  0  0
   -1.2600    0.0850   -0.0960 H   0  0  0  0  0  0  0  0  0  0  0  0
    2.6450    0.0470   -0.9370 H   0  0  0  0  0  0  0  0  0  0  0  0
    3.2610   -2.2960   -1.5470 H   0  0  0  0  0  0  0  0  0  0  0  0
    1.2800   -3.8700   -1.1020 H   0  0  0  0  0  0  0  0  0  0  0  0
  1  2  1  0  0  0  0
  1  7  1  0  0  0  0
  1  8  1  0  0  0  0
  1  9  1  0  0  0  0
  2  6  1  0  0  0  0
  2  3  2  0  0  0  0
  3  4  1  0  0  0  0
  3 10  1  0  0  0  0
  4  5  1  0  0  0  0
  4 11  1  0  0  0  0
  5  6  2  0  0  0  0
  5 12  1  0  0  0  0
M  END
>  <COMPND>
    mobley_5732611 

>  <AUTHOR>
    GENERATED BY OPEN BABEL 2.3.2

>  <MASTER>
        0    0    0    0    0    0    0    0   12    0   12    0

$$$$
