mobley_9434451.pdb
 OpenBabel09222014463D

 11 10  0  0  0  0  0  0  0  0999 V2000
    0.9470   -0.8500   -0.2270 C   0  0  0  0  0  0  0  0  0  0  0  0
    0.2930    0.4590    0.1800 C   0  0  0  0  0  0  0  0  0  0  0  0
   -1.2210    0.3520    0.2380 C   0  0  0  0  0  0  0  0  0  0  0  0
    0.7810    1.8410   -1.1160 Br  0  0  0  0  0  0  0  0  0  0  0  0
    2.0380   -0.7520   -0.2620 H   0  0  0  0  0  0  0  0  0  0  0  0
    0.7070   -1.6410    0.4910 H   0  0  0  0  0  0  0  0  0  0  0  0
    0.6120   -1.1800   -1.2160 H   0  0  0  0  0  0  0  0  0  0  0  0
    0.6880    0.8010    1.1420 H   0  0  0  0  0  0  0  0  0  0  0  0
   -1.6740    1.3040    0.5330 H   0  0  0  0  0  0  0  0  0  0  0  0
   -1.5270   -0.4030    0.9700 H   0  0  0  0  0  0  0  0  0  0  0  0
   -1.6440    0.0700   -0.7330 H   0  0  0  0  0  0  0  0  0  0  0  0
  1  2  1  0  0  0  0
  1  5  1  0  0  0  0
  1  6  1  0  0  0  0
  1  7  1  0  0  0  0
  2  3  1  0  0  0  0
  2  4  1  0  0  0  0
  2  8  1  0  0  0  0
  3  9  1  0  0  0  0
  3 10  1  0  0  0  0
  3 11  1  0  0  0  0
M  END
>  <COMPND>
    mobley_9434451 

>  <AUTHOR>
    GENERATED BY OPEN BABEL 2.3.2

>  <MASTER>
        0    0    0    0    0    0    0    0   11    0   11    0

$$$$
