mobley_9979854.pdb
 OpenBabel09222014463D

 12 11  0  0  1  0  0  0  0  0999 V2000
    0.3310    1.3650   -0.0660 C   0  0  0  0  0  0  0  0  0  0  0  0
   -0.0250   -0.0560   -0.4690 C   0  0  2  0  0  0  0  0  0  0  0  0
   -0.7470   -0.0300   -1.2930 H   0  0  0  0  0  0  0  0  0  0  0  0
   -0.5920   -0.8500    0.6890 C   0  0  0  0  0  0  0  0  0  0  0  0
   -1.7160   -0.2690    1.1640 F   0  0  0  0  0  0  0  0  0  0  0  0
   -0.9020   -2.1120    0.3240 F   0  0  0  0  0  0  0  0  0  0  0  0
    0.2910   -0.9180    1.7090 F   0  0  0  0  0  0  0  0  0  0  0  0
    1.1560   -0.6950   -0.9410 O   0  0  0  0  0  0  0  0  0  0  0  0
    1.0530    1.3720    0.7590 H   0  0  0  0  0  0  0  0  0  0  0  0
   -0.5570    1.9280    0.2400 H   0  0  0  0  0  0  0  0  0  0  0  0
    0.8050    1.8910   -0.9010 H   0  0  0  0  0  0  0  0  0  0  0  0
    0.9030   -1.5970   -1.1920 H   0  0  0  0  0  0  0  0  0  0  0  0
  1  2  1  0  0  0  0
  1  9  1  0  0  0  0
  1 10  1  0  0  0  0
  1 11  1  0  0  0  0
  2  3  1  6  0  0  0
  2  4  1  0  0  0  0
  2  8  1  0  0  0  0
  4  5  1  0  0  0  0
  4  6  1  0  0  0  0
  4  7  1  0  0  0  0
  8 12  1  0  0  0  0
M  END
>  <COMPND>
    mobley_9979854 

>  <AUTHOR>
    GENERATED BY OPEN BABEL 2.3.2

>  <MASTER>
        0    0    0    0    0    0    0    0   12    0   12    0

$$$$
