mobley_6257907.pdb
 OpenBabel09222014463D

 14 14  0  0  0  0  0  0  0  0999 V2000
    1.8850   -1.0360   -0.1120 C   0  0  0  0  0  0  0  0  0  0  0  0
    2.9210   -1.6310    0.6080 C   0  0  0  0  0  0  0  0  0  0  0  0
    2.8780   -1.6520    2.0020 C   0  0  0  0  0  0  0  0  0  0  0  0
    1.8000   -1.0790    2.6760 C   0  0  0  0  0  0  0  0  0  0  0  0
    0.7640   -0.4840    1.9550 C   0  0  0  0  0  0  0  0  0  0  0  0
    0.8070   -0.4630    0.5610 C   0  0  0  0  0  0  0  0  0  0  0  0
   -0.5670    0.2240    2.7850 Cl  0  0  0  0  0  0  0  0  0  0  0  0
    3.9260   -2.2530    2.7300 N   0  0  0  0  0  0  0  0  0  0  0  0
    1.9190   -1.0190   -1.1980 H   0  0  0  0  0  0  0  0  0  0  0  0
    3.7570   -2.0740    0.0730 H   0  0  0  0  0  0  0  0  0  0  0  0
    1.7700   -1.0970    3.7630 H   0  0  0  0  0  0  0  0  0  0  0  0
    0.0060   -0.0030   -0.0140 H   0  0  0  0  0  0  0  0  0  0  0  0
    4.6700   -2.7020    2.2350 H   0  0  0  0  0  0  0  0  0  0  0  0
    3.8610   -2.3030    3.7270 H   0  0  0  0  0  0  0  0  0  0  0  0
  1  6  2  0  0  0  0
  1  2  1  0  0  0  0
  1  9  1  0  0  0  0
  2  3  2  0  0  0  0
  2 10  1  0  0  0  0
  3  4  1  0  0  0  0
  3  8  1  0  0  0  0
  4  5  2  0  0  0  0
  4 11  1  0  0  0  0
  5  6  1  0  0  0  0
  5  7  1  0  0  0  0
  6 12  1  0  0  0  0
  8 13  1  0  0  0  0
  8 14  1  0  0  0  0
M  END
>  <COMPND>
    mobley_6257907 

>  <AUTHOR>
    GENERATED BY OPEN BABEL 2.3.2

>  <MASTER>
        0    0    0    0    0    0    0    0   14    0   14    0

$$$$
