mobley_6861308.pdb
 OpenBabel09222014463D

 24 24  0  0  0  0  0  0  0  0999 V2000
    0.6780   -0.7210   -0.2300 C   0  0  0  0  0  0  0  0  0  0  0  0
    1.8320    0.0810   -0.6180 N   0  0  0  0  0  0  0  0  0  0  0  0
    1.5870    1.4500   -1.0680 C   0  0  0  0  0  0  0  0  0  0  0  0
    3.1090   -0.5200   -0.5330 C   0  0  0  0  0  0  0  0  0  0  0  0
    3.2570   -1.6810   -0.1460 O   0  0  0  0  0  0  0  0  0  0  0  0
    4.1540    0.3100   -0.9470 N   0  0  0  0  0  0  0  0  0  0  0  0
    5.3830   -0.0750   -1.5360 C   0  0  0  0  0  0  0  0  0  0  0  0
    6.3210    0.8950   -1.8900 C   0  0  0  0  0  0  0  0  0  0  0  0
    7.5330    0.5160   -2.4690 C   0  0  0  0  0  0  0  0  0  0  0  0
    7.8060   -0.8330   -2.6940 C   0  0  0  0  0  0  0  0  0  0  0  0
    6.8680   -1.8030   -2.3410 C   0  0  0  0  0  0  0  0  0  0  0  0
    5.6570   -1.4240   -1.7620 C   0  0  0  0  0  0  0  0  0  0  0  0
    0.2880   -1.2620   -1.0960 H   0  0  0  0  0  0  0  0  0  0  0  0
   -0.1110   -0.0790    0.1690 H   0  0  0  0  0  0  0  0  0  0  0  0
    0.9630   -1.4450    0.5380 H   0  0  0  0  0  0  0  0  0  0  0  0
    1.6210    2.1130   -0.2100 H   0  0  0  0  0  0  0  0  0  0  0  0
    0.6090    1.4990   -1.5360 H   0  0  0  0  0  0  0  0  0  0  0  0
    2.3540    1.7290   -1.7840 H   0  0  0  0  0  0  0  0  0  0  0  0
    4.0100    1.3130   -0.8900 H   0  0  0  0  0  0  0  0  0  0  0  0
    6.1200    1.9490   -1.7170 H   0  0  0  0  0  0  0  0  0  0  0  0
    8.2630    1.2710   -2.7440 H   0  0  0  0  0  0  0  0  0  0  0  0
    8.7490   -1.1280   -3.1460 H   0  0  0  0  0  0  0  0  0  0  0  0
    7.0810   -2.8540   -2.5170 H   0  0  0  0  0  0  0  0  0  0  0  0
    4.9340   -2.1900   -1.4900 H   0  0  0  0  0  0  0  0  0  0  0  0
  1  2  1  0  0  0  0
  1 13  1  0  0  0  0
  1 14  1  0  0  0  0
  1 15  1  0  0  0  0
  2  3  1  0  0  0  0
  2  4  1  0  0  0  0
  3 16  1  0  0  0  0
  3 17  1  0  0  0  0
  3 18  1  0  0  0  0
  4  5  2  0  0  0  0
  4  6  1  0  0  0  0
  6  7  1  0  0  0  0
  6 19  1  0  0  0  0
  7 12  2  0  0  0  0
  7  8  1  0  0  0  0
  8  9  2  0  0  0  0
  8 20  1  0  0  0  0
  9 10  1  0  0  0  0
  9 21  1  0  0  0  0
 10 11  2  0  0  0  0
 10 22  1  0  0  0  0
 11 12  1  0  0  0  0
 11 23  1  0  0  0  0
 12 24  1  0  0  0  0
M  END
>  <COMPND>
    mobley_6861308 

>  <AUTHOR>
    GENERATED BY OPEN BABEL 2.3.2

>  <MASTER>
        0    0    0    0    0    0    0    0   24    0   24    0

$$$$
