mobley_6091882.pdb
 OpenBabel09222014463D

  6  5  0  0  0  0  0  0  0  0999 V2000
    0.2840    1.0300   -0.1840 C   0  0  0  0  0  0  0  0  0  0  0  0
   -0.6400    1.9560   -0.4470 C   0  0  0  0  0  0  0  0  0  0  0  0
    1.3360    1.2900   -0.1500 H   0  0  0  0  0  0  0  0  0  0  0  0
    0.0000    0.0000    0.0000 H   0  0  0  0  0  0  0  0  0  0  0  0
   -1.6920    1.6950   -0.4810 H   0  0  0  0  0  0  0  0  0  0  0  0
   -0.3560    2.9860   -0.6320 H   0  0  0  0  0  0  0  0  0  0  0  0
  1  2  2  0  0  0  0
  1  3  1  0  0  0  0
  1  4  1  0  0  0  0
  2  5  1  0  0  0  0
  2  6  1  0  0  0  0
M  END
>  <COMPND>
    mobley_6091882 

>  <AUTHOR>
    GENERATED BY OPEN BABEL 2.3.2

>  <MASTER>
        0    0    0    0    0    0    0    0    6    0    6    0

$$$$
