mobley_2451097.pdb
 OpenBabel09222014463D

 13 13  0  0  0  0  0  0  0  0999 V2000
    1.8850   -1.0360   -0.1120 C   0  0  0  0  0  0  0  0  0  0  0  0
    2.9210   -1.6310    0.6080 C   0  0  0  0  0  0  0  0  0  0  0  0
    2.8780   -1.6520    2.0020 C   0  0  0  0  0  0  0  0  0  0  0  0
    1.8000   -1.0790    2.6760 C   0  0  0  0  0  0  0  0  0  0  0  0
    0.7640   -0.4840    1.9550 C   0  0  0  0  0  0  0  0  0  0  0  0
    0.8070   -0.4630    0.5610 C   0  0  0  0  0  0  0  0  0  0  0  0
    1.7560   -1.1010    4.1040 C   0  0  0  0  0  0  0  0  0  0  0  0
    1.7200   -1.1180    5.2650 N   0  0  0  0  0  0  0  0  0  0  0  0
    1.9170   -1.0210   -1.1980 H   0  0  0  0  0  0  0  0  0  0  0  0
    3.7610   -2.0780    0.0840 H   0  0  0  0  0  0  0  0  0  0  0  0
    3.6930   -2.1190    2.5500 H   0  0  0  0  0  0  0  0  0  0  0  0
   -0.0840   -0.0330    2.4660 H   0  0  0  0  0  0  0  0  0  0  0  0
   -0.0010   -0.0010    0.0000 H   0  0  0  0  0  0  0  0  0  0  0  0
  1  6  2  0  0  0  0
  1  2  1  0  0  0  0
  1  9  1  0  0  0  0
  2  3  2  0  0  0  0
  2 10  1  0  0  0  0
  3  4  1  0  0  0  0
  3 11  1  0  0  0  0
  4  5  2  0  0  0  0
  4  7  1  0  0  0  0
  5  6  1  0  0  0  0
  5 12  1  0  0  0  0
  6 13  1  0  0  0  0
  7  8  3  0  0  0  0
M  END
>  <COMPND>
    mobley_2451097 

>  <AUTHOR>
    GENERATED BY OPEN BABEL 2.3.2

>  <MASTER>
        0    0    0    0    0    0    0    0   13    0   13    0

$$$$
