mobley_2295058.pdb
 OpenBabel09222014463D

 19 19  0  0  0  0  0  0  0  0999 V2000
    0.5840   -1.0130   -3.5060 C   0  0  0  0  0  0  0  0  0  0  0  0
    0.6720   -1.0310   -2.0780 O   0  0  0  0  0  0  0  0  0  0  0  0
    1.9290   -1.0140   -1.5660 C   0  0  0  0  0  0  0  0  0  0  0  0
    2.9700   -0.9850   -2.2040 O   0  0  0  0  0  0  0  0  0  0  0  0
    1.8850   -1.0360   -0.1120 C   0  0  0  0  0  0  0  0  0  0  0  0
    2.9210   -1.6310    0.6080 C   0  0  0  0  0  0  0  0  0  0  0  0
    2.8780   -1.6520    2.0020 C   0  0  0  0  0  0  0  0  0  0  0  0
    1.8000   -1.0790    2.6760 C   0  0  0  0  0  0  0  0  0  0  0  0
    0.7640   -0.4840    1.9550 C   0  0  0  0  0  0  0  0  0  0  0  0
    0.8070   -0.4630    0.5610 C   0  0  0  0  0  0  0  0  0  0  0  0
    1.7570   -1.0990    4.0360 O   0  0  0  0  0  0  0  0  0  0  0  0
   -0.4660   -1.0290   -3.8070 H   0  0  0  0  0  0  0  0  0  0  0  0
    1.1050   -1.8820   -3.9160 H   0  0  0  0  0  0  0  0  0  0  0  0
    1.0540   -0.1000   -3.8800 H   0  0  0  0  0  0  0  0  0  0  0  0
    3.7660   -2.0810    0.0940 H   0  0  0  0  0  0  0  0  0  0  0  0
    3.6890   -2.1160    2.5580 H   0  0  0  0  0  0  0  0  0  0  0  0
   -0.0790   -0.0360    2.4740 H   0  0  0  0  0  0  0  0  0  0  0  0
   -0.0050    0.0040    0.0090 H   0  0  0  0  0  0  0  0  0  0  0  0
    2.5430   -1.5440    4.3910 H   0  0  0  0  0  0  0  0  0  0  0  0
  1  2  1  0  0  0  0
  1 12  1  0  0  0  0
  1 13  1  0  0  0  0
  1 14  1  0  0  0  0
  2  3  1  0  0  0  0
  3  4  2  0  0  0  0
  3  5  1  0  0  0  0
  5 10  2  0  0  0  0
  5  6  1  0  0  0  0
  6  7  2  0  0  0  0
  6 15  1  0  0  0  0
  7  8  1  0  0  0  0
  7 16  1  0  0  0  0
  8  9  2  0  0  0  0
  8 11  1  0  0  0  0
  9 10  1  0  0  0  0
  9 17  1  0  0  0  0
 10 18  1  0  0  0  0
 11 19  1  0  0  0  0
M  END
>  <COMPND>
    mobley_2295058 

>  <AUTHOR>
    GENERATED BY OPEN BABEL 2.3.2

>  <MASTER>
        0    0    0    0    0    0    0    0   19    0   19    0

$$$$
