mobley_2099370.pdb
 OpenBabel09222014463D

 33 34  0  0  1  0  0  0  0  0999 V2000
    1.9220    0.4070   -2.1730 C   0  0  0  0  0  0  0  0  0  0  0  0
    1.9310   -1.0140   -1.6030 C   0  0  1  0  0  0  0  0  0  0  0  0
    2.8730   -1.4890   -1.9080 H   0  0  0  0  0  0  0  0  0  0  0  0
    1.8850   -1.0360   -0.1120 C   0  0  0  0  0  0  0  0  0  0  0  0
    2.9210   -1.6310    0.6080 C   0  0  0  0  0  0  0  0  0  0  0  0
    2.8780   -1.6520    2.0020 C   0  0  0  0  0  0  0  0  0  0  0  0
    1.8000   -1.0790    2.6760 C   0  0  0  0  0  0  0  0  0  0  0  0
    0.7640   -0.4840    1.9550 C   0  0  0  0  0  0  0  0  0  0  0  0
    0.8070   -0.4630    0.5610 C   0  0  0  0  0  0  0  0  0  0  0  0
   -0.3610    0.1120    2.6570 C   0  0  0  0  0  0  0  0  0  0  0  0
   -0.3290    1.3060    2.9900 O   0  0  0  0  0  0  0  0  0  0  0  0
   -1.5890   -0.6640    3.0080 C   0  0  0  0  0  0  0  0  0  0  0  0
   -1.6860   -2.0110    2.6590 C   0  0  0  0  0  0  0  0  0  0  0  0
   -2.8330   -2.7350    2.9850 C   0  0  0  0  0  0  0  0  0  0  0  0
   -3.8820   -2.1120    3.6600 C   0  0  0  0  0  0  0  0  0  0  0  0
   -3.7860   -0.7650    4.0090 C   0  0  0  0  0  0  0  0  0  0  0  0
   -2.6390   -0.0410    3.6830 C   0  0  0  0  0  0  0  0  0  0  0  0
    0.8000   -1.8310   -2.2110 C   0  0  0  0  0  0  0  0  0  0  0  0
   -0.1120   -2.3530   -1.5830 O   0  0  0  0  0  0  0  0  0  0  0  0
    0.9080   -1.9290   -3.5620 O   0  0  0  0  0  0  0  0  0  0  0  0
    1.0070    0.9490   -1.9090 H   0  0  0  0  0  0  0  0  0  0  0  0
    2.7790    0.9850   -1.8100 H   0  0  0  0  0  0  0  0  0  0  0  0
    1.9730    0.3880   -3.2680 H   0  0  0  0  0  0  0  0  0  0  0  0
    3.7650   -2.0800    0.0910 H   0  0  0  0  0  0  0  0  0  0  0  0
    3.6850   -2.1150    2.5630 H   0  0  0  0  0  0  0  0  0  0  0  0
    1.7760   -1.1020    3.7620 H   0  0  0  0  0  0  0  0  0  0  0  0
   -0.0010   -0.0010   -0.0030 H   0  0  0  0  0  0  0  0  0  0  0  0
   -0.8740   -2.5060    2.1320 H   0  0  0  0  0  0  0  0  0  0  0  0
   -2.9080   -3.7840    2.7130 H   0  0  0  0  0  0  0  0  0  0  0  0
   -4.7760   -2.6760    3.9140 H   0  0  0  0  0  0  0  0  0  0  0  0
   -4.6040   -0.2810    4.5340 H   0  0  0  0  0  0  0  0  0  0  0  0
   -2.5740    1.0080    3.9600 H   0  0  0  0  0  0  0  0  0  0  0  0
    1.6800   -1.4700   -3.9570 H   0  0  0  0  0  0  0  0  0  0  0  0
  1  2  1  0  0  0  0
  1 21  1  0  0  0  0
  1 22  1  0  0  0  0
  1 23  1  0  0  0  0
  2  3  1  6  0  0  0
  2  4  1  0  0  0  0
  2 18  1  0  0  0  0
  4  9  2  0  0  0  0
  4  5  1  0  0  0  0
  5  6  2  0  0  0  0
  5 24  1  0  0  0  0
  6  7  1  0  0  0  0
  6 25  1  0  0  0  0
  7  8  2  0  0  0  0
  7 26  1  0  0  0  0
  8  9  1  0  0  0  0
  8 10  1  0  0  0  0
  9 27  1  0  0  0  0
 10 11  2  0  0  0  0
 10 12  1  0  0  0  0
 12 17  2  0  0  0  0
 12 13  1  0  0  0  0
 13 14  2  0  0  0  0
 13 28  1  0  0  0  0
 14 15  1  0  0  0  0
 14 29  1  0  0  0  0
 15 16  2  0  0  0  0
 15 30  1  0  0  0  0
 16 17  1  0  0  0  0
 16 31  1  0  0  0  0
 17 32  1  0  0  0  0
 18 19  2  0  0  0  0
 18 20  1  0  0  0  0
 20 33  1  0  0  0  0
M  END
>  <COMPND>
    mobley_2099370 

>  <AUTHOR>
    GENERATED BY OPEN BABEL 2.3.2

>  <MASTER>
        0    0    0    0    0    0    0    0   33    0   33    0

$$$$
