mobley_2457863.pdb
 OpenBabel09222014463D

 17 17  0  0  0  0  0  0  0  0999 V2000
    0.8350   -0.3930   -2.1380 C   0  0  0  0  0  0  0  0  0  0  0  0
    1.9270   -1.0160   -1.4730 O   0  0  0  0  0  0  0  0  0  0  0  0
    1.8850   -1.0360   -0.1120 C   0  0  0  0  0  0  0  0  0  0  0  0
    2.9210   -1.6310    0.6080 C   0  0  0  0  0  0  0  0  0  0  0  0
    2.8780   -1.6520    2.0020 C   0  0  0  0  0  0  0  0  0  0  0  0
    1.8000   -1.0790    2.6760 C   0  0  0  0  0  0  0  0  0  0  0  0
    0.7640   -0.4840    1.9550 C   0  0  0  0  0  0  0  0  0  0  0  0
    0.8070   -0.4630    0.5610 C   0  0  0  0  0  0  0  0  0  0  0  0
   -0.2880    0.0750    2.6130 O   0  0  0  0  0  0  0  0  0  0  0  0
    0.9900   -0.4440   -3.2190 H   0  0  0  0  0  0  0  0  0  0  0  0
    0.7600    0.6490   -1.8190 H   0  0  0  0  0  0  0  0  0  0  0  0
   -0.0860   -0.9200   -1.8790 H   0  0  0  0  0  0  0  0  0  0  0  0
    3.7640   -2.0780    0.0890 H   0  0  0  0  0  0  0  0  0  0  0  0
    3.6850   -2.1140    2.5630 H   0  0  0  0  0  0  0  0  0  0  0  0
    1.7710   -1.0990    3.7620 H   0  0  0  0  0  0  0  0  0  0  0  0
    0.0000    0.0010   -0.0010 H   0  0  0  0  0  0  0  0  0  0  0  0
   -0.9230    0.4460    1.9790 H   0  0  0  0  0  0  0  0  0  0  0  0
  1  2  1  0  0  0  0
  1 10  1  0  0  0  0
  1 11  1  0  0  0  0
  1 12  1  0  0  0  0
  2  3  1  0  0  0  0
  3  8  2  0  0  0  0
  3  4  1  0  0  0  0
  4  5  2  0  0  0  0
  4 13  1  0  0  0  0
  5  6  1  0  0  0  0
  5 14  1  0  0  0  0
  6  7  2  0  0  0  0
  6 15  1  0  0  0  0
  7  8  1  0  0  0  0
  7  9  1  0  0  0  0
  8 16  1  0  0  0  0
  9 17  1  0  0  0  0
M  END
>  <COMPND>
    mobley_2457863 

>  <AUTHOR>
    GENERATED BY OPEN BABEL 2.3.2

>  <MASTER>
        0    0    0    0    0    0    0    0   17    0   17    0

$$$$
