mobley_1231151.pdb
 OpenBabel09222014463D

 11 10  0  0  0  0  0  0  0  0999 V2000
    0.8650   -0.5430    0.3970 C   0  0  0  0  0  0  0  0  0  0  0  0
    1.0060   -0.3020    1.8930 C   0  0  0  0  0  0  0  0  0  0  0  0
    1.1980    1.1740    2.2080 C   0  0  0  0  0  0  0  0  0  0  0  0
    2.3970   -1.2330    2.5190 Cl  0  0  0  0  0  0  0  0  0  0  0  0
    0.7270   -1.6080    0.1820 H   0  0  0  0  0  0  0  0  0  0  0  0
   -0.0070   -0.0100    0.0020 H   0  0  0  0  0  0  0  0  0  0  0  0
    1.7470   -0.1960   -0.1520 H   0  0  0  0  0  0  0  0  0  0  0  0
    0.1160   -0.6750    2.4100 H   0  0  0  0  0  0  0  0  0  0  0  0
    1.2980    1.3350    3.2870 H   0  0  0  0  0  0  0  0  0  0  0  0
    0.3360    1.7560    1.8650 H   0  0  0  0  0  0  0  0  0  0  0  0
    2.0910    1.5780    1.7200 H   0  0  0  0  0  0  0  0  0  0  0  0
  1  2  1  0  0  0  0
  1  5  1  0  0  0  0
  1  6  1  0  0  0  0
  1  7  1  0  0  0  0
  2  3  1  0  0  0  0
  2  4  1  0  0  0  0
  2  8  1  0  0  0  0
  3  9  1  0  0  0  0
  3 10  1  0  0  0  0
  3 11  1  0  0  0  0
M  END
>  <COMPND>
    mobley_1231151 

>  <AUTHOR>
    GENERATED BY OPEN BABEL 2.3.2

>  <MASTER>
        0    0    0    0    0    0    0    0   11    0   11    0

$$$$
