mobley_5445548.pdb
 OpenBabel09222014463D

 21 21  0  0  0  0  0  0  0  0999 V2000
    2.6350    0.2400   -2.1260 C   0  0  0  0  0  0  0  0  0  0  0  0
    1.9310   -1.0140   -1.6030 C   0  0  0  0  0  0  0  0  0  0  0  0
    0.5330   -1.1480   -2.2110 C   0  0  0  0  0  0  0  0  0  0  0  0
    1.8850   -1.0360   -0.1120 C   0  0  0  0  0  0  0  0  0  0  0  0
    2.9210   -1.6310    0.6080 C   0  0  0  0  0  0  0  0  0  0  0  0
    2.8780   -1.6520    2.0020 C   0  0  0  0  0  0  0  0  0  0  0  0
    1.8000   -1.0790    2.6760 C   0  0  0  0  0  0  0  0  0  0  0  0
    0.7640   -0.4840    1.9550 C   0  0  0  0  0  0  0  0  0  0  0  0
    0.8070   -0.4630    0.5610 C   0  0  0  0  0  0  0  0  0  0  0  0
    3.6390    0.3540   -1.7020 H   0  0  0  0  0  0  0  0  0  0  0  0
    2.0630    1.1380   -1.8690 H   0  0  0  0  0  0  0  0  0  0  0  0
    2.7360    0.2070   -3.2160 H   0  0  0  0  0  0  0  0  0  0  0  0
    2.5150   -1.8780   -1.9470 H   0  0  0  0  0  0  0  0  0  0  0  0
    0.0270   -2.0450   -1.8380 H   0  0  0  0  0  0  0  0  0  0  0  0
    0.5940   -1.2270   -3.3020 H   0  0  0  0  0  0  0  0  0  0  0  0
   -0.1010   -0.2850   -1.9760 H   0  0  0  0  0  0  0  0  0  0  0  0
    3.7650   -2.0800    0.0910 H   0  0  0  0  0  0  0  0  0  0  0  0
    3.6850   -2.1150    2.5630 H   0  0  0  0  0  0  0  0  0  0  0  0
    1.7660   -1.0950    3.7610 H   0  0  0  0  0  0  0  0  0  0  0  0
   -0.0760   -0.0380    2.4790 H   0  0  0  0  0  0  0  0  0  0  0  0
   -0.0050    0.0030    0.0080 H   0  0  0  0  0  0  0  0  0  0  0  0
  1  2  1  0  0  0  0
  1 10  1  0  0  0  0
  1 11  1  0  0  0  0
  1 12  1  0  0  0  0
  2  3  1  0  0  0  0
  2  4  1  0  0  0  0
  2 13  1  0  0  0  0
  3 14  1  0  0  0  0
  3 15  1  0  0  0  0
  3 16  1  0  0  0  0
  4  9  2  0  0  0  0
  4  5  1  0  0  0  0
  5  6  2  0  0  0  0
  5 17  1  0  0  0  0
  6  7  1  0  0  0  0
  6 18  1  0  0  0  0
  7  8  2  0  0  0  0
  7 19  1  0  0  0  0
  8  9  1  0  0  0  0
  8 20  1  0  0  0  0
  9 21  1  0  0  0  0
M  END
>  <COMPND>
    mobley_5445548 

>  <AUTHOR>
    GENERATED BY OPEN BABEL 2.3.2

>  <MASTER>
        0    0    0    0    0    0    0    0   21    0   21    0

$$$$
