mobley_1735893.pdb
 OpenBabel09222014463D

 20 19  0  0  0  0  0  0  0  0999 V2000
    1.9050    1.9360   -0.3940 C   0  0  0  0  0  0  0  0  0  0  0  0
    1.7350    0.6230   -1.1430 C   0  0  0  0  0  0  0  0  0  0  0  0
    1.0010    0.7710   -2.4770 C   0  0  0  0  0  0  0  0  0  0  0  0
    0.8040   -0.5230   -3.2730 C   0  0  0  0  0  0  0  0  0  0  0  0
    0.0660   -0.3170   -4.5950 C   0  0  0  0  0  0  0  0  0  0  0  0
   -0.1090   -1.6150   -5.3500 C   0  0  0  0  0  0  0  0  0  0  0  0
    0.2800   -2.7120   -4.9770 O   0  0  0  0  0  0  0  0  0  0  0  0
   -0.7600   -1.4190   -6.5270 O   0  0  0  0  0  0  0  0  0  0  0  0
    2.4350    1.7650    0.5490 H   0  0  0  0  0  0  0  0  0  0  0  0
    2.4850    2.6530   -0.9830 H   0  0  0  0  0  0  0  0  0  0  0  0
    0.9380    2.3870   -0.1510 H   0  0  0  0  0  0  0  0  0  0  0  0
    2.7290    0.2060   -1.3420 H   0  0  0  0  0  0  0  0  0  0  0  0
    1.2200   -0.1000   -0.5020 H   0  0  0  0  0  0  0  0  0  0  0  0
    0.0150    1.2170   -2.2920 H   0  0  0  0  0  0  0  0  0  0  0  0
    1.5510    1.4890   -3.0980 H   0  0  0  0  0  0  0  0  0  0  0  0
    1.7710   -1.0050   -3.4560 H   0  0  0  0  0  0  0  0  0  0  0  0
    0.2340   -1.2220   -2.6470 H   0  0  0  0  0  0  0  0  0  0  0  0
    0.6260    0.3700   -5.2390 H   0  0  0  0  0  0  0  0  0  0  0  0
   -0.9280    0.1010   -4.3990 H   0  0  0  0  0  0  0  0  0  0  0  0
   -1.0190   -0.4900   -6.7080 H   0  0  0  0  0  0  0  0  0  0  0  0
  1  2  1  0  0  0  0
  1  9  1  0  0  0  0
  1 10  1  0  0  0  0
  1 11  1  0  0  0  0
  2  3  1  0  0  0  0
  2 12  1  0  0  0  0
  2 13  1  0  0  0  0
  3  4  1  0  0  0  0
  3 14  1  0  0  0  0
  3 15  1  0  0  0  0
  4  5  1  0  0  0  0
  4 16  1  0  0  0  0
  4 17  1  0  0  0  0
  5  6  1  0  0  0  0
  5 18  1  0  0  0  0
  5 19  1  0  0  0  0
  6  7  2  0  0  0  0
  6  8  1  0  0  0  0
  8 20  1  0  0  0  0
M  END
>  <COMPND>
    mobley_1735893 

>  <AUTHOR>
    GENERATED BY OPEN BABEL 2.3.2

>  <MASTER>
        0    0    0    0    0    0    0    0   20    0   20    0

$$$$
