mobley_1858644.pdb
 OpenBabel09222014463D

 19 19  0  0  0  0  0  0  0  0999 V2000
    1.8850   -1.0360   -0.1120 C   0  0  0  0  0  0  0  0  0  0  0  0
    2.9210   -1.6310    0.6080 C   0  0  0  0  0  0  0  0  0  0  0  0
    2.8780   -1.6520    2.0020 C   0  0  0  0  0  0  0  0  0  0  0  0
    1.8000   -1.0790    2.6760 C   0  0  0  0  0  0  0  0  0  0  0  0
    0.7640   -0.4840    1.9550 C   0  0  0  0  0  0  0  0  0  0  0  0
    0.8070   -0.4630    0.5610 C   0  0  0  0  0  0  0  0  0  0  0  0
    1.7550   -1.1010    4.1660 C   0  0  0  0  0  0  0  0  0  0  0  0
    1.0570   -2.3420    4.7290 C   0  0  0  0  0  0  0  0  0  0  0  0
    1.7460   -3.5110    4.3040 O   0  0  0  0  0  0  0  0  0  0  0  0
    1.9180   -1.0210   -1.1980 H   0  0  0  0  0  0  0  0  0  0  0  0
    3.7600   -2.0780    0.0840 H   0  0  0  0  0  0  0  0  0  0  0  0
    3.6900   -2.1170    2.5550 H   0  0  0  0  0  0  0  0  0  0  0  0
   -0.0800   -0.0350    2.4710 H   0  0  0  0  0  0  0  0  0  0  0  0
   -0.0010   -0.0010    0.0000 H   0  0  0  0  0  0  0  0  0  0  0  0
    2.7750   -1.0440    4.5760 H   0  0  0  0  0  0  0  0  0  0  0  0
    1.2280   -0.2070    4.5330 H   0  0  0  0  0  0  0  0  0  0  0  0
    1.0770   -2.3210    5.8230 H   0  0  0  0  0  0  0  0  0  0  0  0
    0.0160   -2.4050    4.3960 H   0  0  0  0  0  0  0  0  0  0  0  0
    1.2710   -4.2680    4.6830 H   0  0  0  0  0  0  0  0  0  0  0  0
  1  6  2  0  0  0  0
  1  2  1  0  0  0  0
  1 10  1  0  0  0  0
  2  3  2  0  0  0  0
  2 11  1  0  0  0  0
  3  4  1  0  0  0  0
  3 12  1  0  0  0  0
  4  5  2  0  0  0  0
  4  7  1  0  0  0  0
  5  6  1  0  0  0  0
  5 13  1  0  0  0  0
  6 14  1  0  0  0  0
  7  8  1  0  0  0  0
  7 15  1  0  0  0  0
  7 16  1  0  0  0  0
  8  9  1  0  0  0  0
  8 17  1  0  0  0  0
  8 18  1  0  0  0  0
  9 19  1  0  0  0  0
M  END
>  <COMPND>
    mobley_1858644 

>  <AUTHOR>
    GENERATED BY OPEN BABEL 2.3.2

>  <MASTER>
        0    0    0    0    0    0    0    0   19    0   19    0

$$$$
