mobley_8798016.pdb
 OpenBabel09222014463D

 13 13  0  0  0  0  0  0  0  0999 V2000
    0.2270   -0.4200    0.9730 C   0  0  0  0  0  0  0  0  0  0  0  0
   -0.6320   -1.3220    1.5800 C   0  0  0  0  0  0  0  0  0  0  0  0
   -0.4090   -1.8820    2.7910 N   0  0  0  0  0  0  0  0  0  0  0  0
    0.7300   -1.5160    3.4210 C   0  0  0  0  0  0  0  0  0  0  0  0
    1.6520   -0.6230    2.9000 C   0  0  0  0  0  0  0  0  0  0  0  0
    1.3880   -0.0680    1.6520 C   0  0  0  0  0  0  0  0  0  0  0  0
    2.3220    0.8750    1.0600 C   0  0  0  0  0  0  0  0  0  0  0  0
    2.1430    1.4000   -0.0430 O   0  0  0  0  0  0  0  0  0  0  0  0
   -0.0110   -0.0050   -0.0010 H   0  0  0  0  0  0  0  0  0  0  0  0
   -1.5510   -1.6280    1.0930 H   0  0  0  0  0  0  0  0  0  0  0  0
    0.8890   -1.9760    4.3900 H   0  0  0  0  0  0  0  0  0  0  0  0
    2.5480   -0.3690    3.4560 H   0  0  0  0  0  0  0  0  0  0  0  0
    3.2370    1.1230    1.6420 H   0  0  0  0  0  0  0  0  0  0  0  0
  1  6  2  0  0  0  0
  1  2  1  0  0  0  0
  1  9  1  0  0  0  0
  2  3  2  0  0  0  0
  2 10  1  0  0  0  0
  3  4  1  0  0  0  0
  4  5  2  0  0  0  0
  4 11  1  0  0  0  0
  5  6  1  0  0  0  0
  5 12  1  0  0  0  0
  6  7  1  0  0  0  0
  7  8  2  0  0  0  0
  7 13  1  0  0  0  0
M  END
>  <COMPND>
    mobley_8798016 

>  <AUTHOR>
    GENERATED BY OPEN BABEL 2.3.2

>  <MASTER>
        0    0    0    0    0    0    0    0   13    0   13    0

$$$$
