mobley_6571751.pdb
 OpenBabel09222014463D

 19 19  0  0  0  0  0  0  0  0999 V2000
    1.4040    3.7150    1.9910 C   0  0  0  0  0  0  0  0  0  0  0  0
    0.6070    2.4540    1.8420 C   0  0  0  0  0  0  0  0  0  0  0  0
    0.1960    2.0090    0.6420 C   0  0  0  0  0  0  0  0  0  0  0  0
   -0.6330    0.7740    0.4510 C   0  0  0  0  0  0  0  0  0  0  0  0
   -1.2420    0.2490    1.7520 C   0  0  0  0  0  0  0  0  0  0  0  0
   -0.2260    0.2900    2.8870 C   0  0  0  0  0  0  0  0  0  0  0  0
    0.2910    1.7120    3.1180 C   0  0  0  0  0  0  0  0  0  0  0  0
    2.4740    3.4980    1.9320 H   0  0  0  0  0  0  0  0  0  0  0  0
    1.1940    4.1860    2.9560 H   0  0  0  0  0  0  0  0  0  0  0  0
    1.1450    4.4240    1.2000 H   0  0  0  0  0  0  0  0  0  0  0  0
    0.4600    2.5590   -0.2580 H   0  0  0  0  0  0  0  0  0  0  0  0
   -1.4400    0.9840   -0.2600 H   0  0  0  0  0  0  0  0  0  0  0  0
    0.0000    0.0000    0.0000 H   0  0  0  0  0  0  0  0  0  0  0  0
   -2.1140    0.8590    2.0220 H   0  0  0  0  0  0  0  0  0  0  0  0
   -1.6030   -0.7750    1.6030 H   0  0  0  0  0  0  0  0  0  0  0  0
   -0.6770   -0.0930    3.8100 H   0  0  0  0  0  0  0  0  0  0  0  0
    0.6150   -0.3720    2.6460 H   0  0  0  0  0  0  0  0  0  0  0  0
   -0.4600    2.2860    3.6750 H   0  0  0  0  0  0  0  0  0  0  0  0
    1.1870    1.6560    3.7480 H   0  0  0  0  0  0  0  0  0  0  0  0
  1  2  1  0  0  0  0
  1  8  1  0  0  0  0
  1  9  1  0  0  0  0
  1 10  1  0  0  0  0
  2  7  1  0  0  0  0
  2  3  2  0  0  0  0
  3  4  1  0  0  0  0
  3 11  1  0  0  0  0
  4  5  1  0  0  0  0
  4 12  1  0  0  0  0
  4 13  1  0  0  0  0
  5  6  1  0  0  0  0
  5 14  1  0  0  0  0
  5 15  1  0  0  0  0
  6  7  1  0  0  0  0
  6 16  1  0  0  0  0
  6 17  1  0  0  0  0
  7 18  1  0  0  0  0
  7 19  1  0  0  0  0
M  END
>  <COMPND>
    mobley_6571751 

>  <AUTHOR>
    GENERATED BY OPEN BABEL 2.3.2

>  <MASTER>
        0    0    0    0    0    0    0    0   19    0   19    0

$$$$
