mobley_5952846.pdb
 OpenBabel09222014463D

  6  5  0  0  0  0  0  0  0  0999 V2000
    0.5210   -0.2160   -0.3650 C   0  0  0  0  0  0  0  0  0  0  0  0
   -0.5210    0.2160    0.3650 C   0  0  0  0  0  0  0  0  0  0  0  0
   -1.7160   -0.8630    1.0170 Cl  0  0  0  0  0  0  0  0  0  0  0  0
   -0.7750    1.8950    0.7290 Cl  0  0  0  0  0  0  0  0  0  0  0  0
    1.7160    0.8630   -1.0170 Cl  0  0  0  0  0  0  0  0  0  0  0  0
    0.7750   -1.8950   -0.7290 Cl  0  0  0  0  0  0  0  0  0  0  0  0
  1  2  2  0  0  0  0
  1  5  1  0  0  0  0
  1  6  1  0  0  0  0
  2  3  1  0  0  0  0
  2  4  1  0  0  0  0
M  END
>  <COMPND>
    mobley_5952846 

>  <AUTHOR>
    GENERATED BY OPEN BABEL 2.3.2

>  <MASTER>
        0    0    0    0    0    0    0    0    6    0    6    0

$$$$
