mobley_2178600.pdb
 OpenBabel09222014463D

 17 16  0  0  0  0  0  0  0  0999 V2000
   -0.2350   -0.7100   -0.9420 C   0  0  0  0  0  0  0  0  0  0  0  0
    0.9420   -0.5150   -1.8850 C   0  0  0  0  0  0  0  0  0  0  0  0
    0.9810    0.9090   -2.4410 C   0  0  0  0  0  0  0  0  0  0  0  0
    2.1520    1.1570   -3.4000 C   0  0  0  0  0  0  0  0  0  0  0  0
    2.2430    2.5630   -3.9860 C   0  0  0  0  0  0  0  0  0  0  0  0
    0.7950    2.9940   -4.9230 Cl  0  0  0  0  0  0  0  0  0  0  0  0
   -0.2580   -1.7310   -0.5480 H   0  0  0  0  0  0  0  0  0  0  0  0
   -1.1840   -0.5170   -1.4520 H   0  0  0  0  0  0  0  0  0  0  0  0
   -0.1600   -0.0200   -0.0950 H   0  0  0  0  0  0  0  0  0  0  0  0
    1.8720   -0.7330   -1.3490 H   0  0  0  0  0  0  0  0  0  0  0  0
    0.8580   -1.2400   -2.7020 H   0  0  0  0  0  0  0  0  0  0  0  0
    1.0740    1.6150   -1.6060 H   0  0  0  0  0  0  0  0  0  0  0  0
    0.0300    1.1410   -2.9340 H   0  0  0  0  0  0  0  0  0  0  0  0
    2.0840    0.4420   -4.2290 H   0  0  0  0  0  0  0  0  0  0  0  0
    3.0860    0.9270   -2.8730 H   0  0  0  0  0  0  0  0  0  0  0  0
    2.3330    3.2960   -3.1790 H   0  0  0  0  0  0  0  0  0  0  0  0
    3.1140    2.6760   -4.6360 H   0  0  0  0  0  0  0  0  0  0  0  0
  1  2  1  0  0  0  0
  1  7  1  0  0  0  0
  1  8  1  0  0  0  0
  1  9  1  0  0  0  0
  2  3  1  0  0  0  0
  2 10  1  0  0  0  0
  2 11  1  0  0  0  0
  3  4  1  0  0  0  0
  3 12  1  0  0  0  0
  3 13  1  0  0  0  0
  4  5  1  0  0  0  0
  4 14  1  0  0  0  0
  4 15  1  0  0  0  0
  5  6  1  0  0  0  0
  5 16  1  0  0  0  0
  5 17  1  0  0  0  0
M  END
>  <COMPND>
    mobley_2178600 

>  <AUTHOR>
    GENERATED BY OPEN BABEL 2.3.2

>  <MASTER>
        0    0    0    0    0    0    0    0   17    0   17    0

$$$$
