mobley_4338603.pdb
 OpenBabel09222014463D

 12 12  0  0  0  0  0  0  0  0999 V2000
    1.2400    0.6630   -0.0110 C   0  0  0  0  0  0  0  0  0  0  0  0
    0.1870    1.1380    0.9210 C   0  0  0  0  0  0  0  0  0  0  0  0
    0.3940    2.0910    1.6670 O   0  0  0  0  0  0  0  0  0  0  0  0
   -1.0060    0.4290    0.8680 N   0  0  0  0  0  0  0  0  0  0  0  0
   -1.2830   -0.6600    0.0340 C   0  0  0  0  0  0  0  0  0  0  0  0
   -2.3670   -1.2440    0.0400 O   0  0  0  0  0  0  0  0  0  0  0  0
   -0.2330   -1.0240   -0.7970 N   0  0  0  0  0  0  0  0  0  0  0  0
    0.9690   -0.3760   -0.8030 C   0  0  0  0  0  0  0  0  0  0  0  0
    2.0990   -1.0170   -1.9190 Cl  0  0  0  0  0  0  0  0  0  0  0  0
    2.1930    1.1770   -0.0140 H   0  0  0  0  0  0  0  0  0  0  0  0
   -1.7480    0.7290    1.4930 H   0  0  0  0  0  0  0  0  0  0  0  0
   -0.3520   -1.8070   -1.4330 H   0  0  0  0  0  0  0  0  0  0  0  0
  1  8  2  0  0  0  0
  1  2  1  0  0  0  0
  1 10  1  0  0  0  0
  2  3  2  0  0  0  0
  2  4  1  0  0  0  0
  4  5  1  0  0  0  0
  4 11  1  0  0  0  0
  5  6  2  0  0  0  0
  5  7  1  0  0  0  0
  7  8  1  0  0  0  0
  7 12  1  0  0  0  0
  8  9  1  0  0  0  0
M  END
>  <COMPND>
    mobley_4338603 

>  <AUTHOR>
    GENERATED BY OPEN BABEL 2.3.2

>  <MASTER>
        0    0    0    0    0    0    0    0   12    0   12    0

$$$$
