mobley_1893815.pdb
 OpenBabel09222014463D

  8  7  0  0  0  0  0  0  0  0999 V2000
   -0.0330   -0.3770   -0.7220 C   0  0  0  0  0  0  0  0  0  0  0  0
    0.0290    0.4370    0.5740 C   0  0  0  0  0  0  0  0  0  0  0  0
    0.0560    2.1830    0.1540 Cl  0  0  0  0  0  0  0  0  0  0  0  0
    1.5130    0.0680    1.5040 Cl  0  0  0  0  0  0  0  0  0  0  0  0
   -1.4040    0.1360    1.6010 Cl  0  0  0  0  0  0  0  0  0  0  0  0
   -0.0650   -2.1430   -0.4540 Cl  0  0  0  0  0  0  0  0  0  0  0  0
    0.8350   -0.1730   -1.3590 H   0  0  0  0  0  0  0  0  0  0  0  0
   -0.9310   -0.1310   -1.3000 H   0  0  0  0  0  0  0  0  0  0  0  0
  1  2  1  0  0  0  0
  1  6  1  0  0  0  0
  1  7  1  0  0  0  0
  1  8  1  0  0  0  0
  2  3  1  0  0  0  0
  2  4  1  0  0  0  0
  2  5  1  0  0  0  0
M  END
>  <COMPND>
    mobley_1893815 

>  <AUTHOR>
    GENERATED BY OPEN BABEL 2.3.2

>  <MASTER>
        0    0    0    0    0    0    0    0    8    0    8    0

$$$$
