mobley_5063386.pdb
 OpenBabel09222014463D

 15 15  0  0  0  0  0  0  0  0999 V2000
    1.8850   -1.0360   -0.1120 C   0  0  0  0  0  0  0  0  0  0  0  0
    2.9210   -1.6310    0.6080 C   0  0  0  0  0  0  0  0  0  0  0  0
    2.8780   -1.6520    2.0020 C   0  0  0  0  0  0  0  0  0  0  0  0
    1.8000   -1.0790    2.6760 C   0  0  0  0  0  0  0  0  0  0  0  0
    0.7640   -0.4840    1.9550 C   0  0  0  0  0  0  0  0  0  0  0  0
    0.8070   -0.4630    0.5610 C   0  0  0  0  0  0  0  0  0  0  0  0
   -0.3440    0.1050    2.6250 N   0  0  0  0  0  0  0  0  0  0  0  0
   -0.2860    1.3170    2.9410 O   0  5  0  0  0  0  0  0  0  0  0  0
   -1.3460   -0.6050    2.8790 O   0  5  0  0  0  0  0  0  0  0  0  0
    1.7800   -1.1120    4.0380 O   0  0  0  0  0  0  0  0  0  0  0  0
    1.9190   -1.0200   -1.1980 H   0  0  0  0  0  0  0  0  0  0  0  0
    3.7600   -2.0780    0.0840 H   0  0  0  0  0  0  0  0  0  0  0  0
    3.6880   -2.1180    2.5570 H   0  0  0  0  0  0  0  0  0  0  0  0
    0.0060   -0.0030   -0.0140 H   0  0  0  0  0  0  0  0  0  0  0  0
    2.5730   -1.5600    4.3730 H   0  0  0  0  0  0  0  0  0  0  0  0
  1  6  2  0  0  0  0
  1  2  1  0  0  0  0
  1 11  1  0  0  0  0
  2  3  2  0  0  0  0
  2 12  1  0  0  0  0
  3  4  1  0  0  0  0
  3 13  1  0  0  0  0
  4  5  2  0  0  0  0
  4 10  1  0  0  0  0
  5  6  1  0  0  0  0
  5  7  1  0  0  0  0
  6 14  1  0  0  0  0
  7  8  2  0  0  0  0
  7  9  2  0  0  0  0
 10 15  1  0  0  0  0
M  CHG  2   8  -1   9  -1
M  END
>  <COMPND>
    mobley_5063386 

>  <AUTHOR>
    GENERATED BY OPEN BABEL 2.3.2

>  <MASTER>
        0    0    0    0    0    0    0    0   15    0   15    0

$$$$
