mobley_2493732.pdb
 OpenBabel09222014463D

  6  5  0  0  0  0  0  0  0  0999 V2000
   -0.9590    0.0620   -0.5380 C   0  0  0  0  0  0  0  0  0  0  0  0
   -1.7400   -1.0200   -0.7610 C   0  0  0  0  0  0  0  0  0  0  0  0
   -1.2830   -2.5970   -0.2100 Cl  0  0  0  0  0  0  0  0  0  0  0  0
   -3.2440   -0.8920   -1.6120 Cl  0  0  0  0  0  0  0  0  0  0  0  0
   -1.2340    1.0720   -0.8820 H   0  0  0  0  0  0  0  0  0  0  0  0
    0.0000    0.0000    0.0000 H   0  0  0  0  0  0  0  0  0  0  0  0
  1  2  2  0  0  0  0
  1  5  1  0  0  0  0
  1  6  1  0  0  0  0
  2  3  1  0  0  0  0
  2  4  1  0  0  0  0
M  END
>  <COMPND>
    mobley_2493732 

>  <AUTHOR>
    GENERATED BY OPEN BABEL 2.3.2

>  <MASTER>
        0    0    0    0    0    0    0    0    6    0    6    0

$$$$
