mobley_7690440.pdb
 OpenBabel09222014463D

 10  9  0  0  0  0  0  0  0  0999 V2000
    0.8110   -0.6600    0.3190 C   0  0  0  0  0  0  0  0  0  0  0  0
    0.2410   -1.6600    1.7150 S   0  0  0  0  0  0  0  0  0  0  0  0
    1.8940   -2.8210    2.1000 S   0  0  0  0  0  0  0  0  0  0  0  0
    1.5890   -4.2570    1.0430 C   0  0  0  0  0  0  0  0  0  0  0  0
    0.0180    0.0210    0.0010 H   0  0  0  0  0  0  0  0  0  0  0  0
    1.0810   -1.3090   -0.5170 H   0  0  0  0  0  0  0  0  0  0  0  0
    1.6860   -0.0750    0.6150 H   0  0  0  0  0  0  0  0  0  0  0  0
    2.4070   -4.9720    1.1500 H   0  0  0  0  0  0  0  0  0  0  0  0
    1.5240   -3.9380    0.0020 H   0  0  0  0  0  0  0  0  0  0  0  0
    0.6520   -4.7340    1.3350 H   0  0  0  0  0  0  0  0  0  0  0  0
  1  2  1  0  0  0  0
  1  5  1  0  0  0  0
  1  6  1  0  0  0  0
  1  7  1  0  0  0  0
  2  3  1  0  0  0  0
  3  4  1  0  0  0  0
  4  8  1  0  0  0  0
  4  9  1  0  0  0  0
  4 10  1  0  0  0  0
M  END
>  <COMPND>
    mobley_7690440 

>  <AUTHOR>
    GENERATED BY OPEN BABEL 2.3.2

>  <MASTER>
        0    0    0    0    0    0    0    0   10    0   10    0

$$$$
