mobley_5631798.pdb
 OpenBabel09222014463D

  4  3  0  0  0  0  0  0  0  0999 V2000
    0.2270   -0.0500    0.1830 N   0  0  0  0  0  0  0  0  0  0  0  0
   -0.3560    0.7300    0.4830 H   0  0  0  0  0  0  0  0  0  0  0  0
    0.5280    0.1710   -0.7650 H   0  0  0  0  0  0  0  0  0  0  0  0
   -0.3980   -0.8510    0.1000 H   0  0  0  0  0  0  0  0  0  0  0  0
  1  2  1  0  0  0  0
  1  3  1  0  0  0  0
  1  4  1  0  0  0  0
M  END
>  <COMPND>
    mobley_5631798 

>  <AUTHOR>
    GENERATED BY OPEN BABEL 2.3.2

>  <MASTER>
        0    0    0    0    0    0    0    0    4    0    4    0

$$$$
