mobley_2792521.pdb
 OpenBabel09222014463D

 17 16  0  0  0  0  0  0  0  0999 V2000
    0.9550    2.2990    1.2340 C   0  0  0  0  0  0  0  0  0  0  0  0
    0.4480    0.8720    1.0980 C   0  0  0  0  0  0  0  0  0  0  0  0
    0.4880    0.4000   -0.3560 C   0  0  0  0  0  0  0  0  0  0  0  0
   -0.0130   -1.0090   -0.4860 C   0  0  0  0  0  0  0  0  0  0  0  0
   -1.0700   -1.3470   -1.2350 C   0  0  0  0  0  0  0  0  0  0  0  0
   -1.4790   -2.7630   -1.3020 C   0  0  0  0  0  0  0  0  0  0  0  0
   -2.4380   -3.1290   -1.9710 O   0  0  0  0  0  0  0  0  0  0  0  0
    0.9220    2.6290    2.2770 H   0  0  0  0  0  0  0  0  0  0  0  0
    0.3500    2.9890    0.6360 H   0  0  0  0  0  0  0  0  0  0  0  0
    1.9910    2.3680    0.8880 H   0  0  0  0  0  0  0  0  0  0  0  0
    1.0610    0.2130    1.7250 H   0  0  0  0  0  0  0  0  0  0  0  0
   -0.5790    0.8180    1.4820 H   0  0  0  0  0  0  0  0  0  0  0  0
    1.5180    0.4380   -0.7300 H   0  0  0  0  0  0  0  0  0  0  0  0
   -0.1010    1.0820   -0.9810 H   0  0  0  0  0  0  0  0  0  0  0  0
    0.5380   -1.7710    0.0600 H   0  0  0  0  0  0  0  0  0  0  0  0
   -1.6430   -0.6210   -1.7980 H   0  0  0  0  0  0  0  0  0  0  0  0
   -0.8740   -3.4760   -0.7170 H   0  0  0  0  0  0  0  0  0  0  0  0
  1  2  1  0  0  0  0
  1  8  1  0  0  0  0
  1  9  1  0  0  0  0
  1 10  1  0  0  0  0
  2  3  1  0  0  0  0
  2 11  1  0  0  0  0
  2 12  1  0  0  0  0
  3  4  1  0  0  0  0
  3 13  1  0  0  0  0
  3 14  1  0  0  0  0
  4  5  2  0  0  0  0
  4 15  1  0  0  0  0
  5  6  1  0  0  0  0
  5 16  1  0  0  0  0
  6  7  2  0  0  0  0
  6 17  1  0  0  0  0
M  END
>  <COMPND>
    mobley_2792521 

>  <AUTHOR>
    GENERATED BY OPEN BABEL 2.3.2

>  <MASTER>
        0    0    0    0    0    0    0    0   17    0   17    0

$$$$
