mobley_303222.pdb
 OpenBabel09222014463D

  9  8  0  0  0  0  0  0  0  0999 V2000
    0.8800   -1.4500    2.1740 C   0  0  0  0  0  0  0  0  0  0  0  0
    1.3490   -1.4450    0.7580 C   0  0  0  0  0  0  0  0  0  0  0  0
    0.8210   -0.6790   -0.2030 C   0  0  0  0  0  0  0  0  0  0  0  0
    0.0900   -2.1970    2.3030 H   0  0  0  0  0  0  0  0  0  0  0  0
    0.4830   -0.4780    2.4830 H   0  0  0  0  0  0  0  0  0  0  0  0
    1.7090   -1.7070    2.8410 H   0  0  0  0  0  0  0  0  0  0  0  0
    2.1710   -2.1090    0.5060 H   0  0  0  0  0  0  0  0  0  0  0  0
    1.2090   -0.7220   -1.2140 H   0  0  0  0  0  0  0  0  0  0  0  0
    0.0000    0.0000    0.0000 H   0  0  0  0  0  0  0  0  0  0  0  0
  1  2  1  0  0  0  0
  1  4  1  0  0  0  0
  1  5  1  0  0  0  0
  1  6  1  0  0  0  0
  2  3  2  0  0  0  0
  2  7  1  0  0  0  0
  3  8  1  0  0  0  0
  3  9  1  0  0  0  0
M  END
>  <COMPND>
    mobley_303222 

>  <AUTHOR>
    GENERATED BY OPEN BABEL 2.3.2

>  <MASTER>
        0    0    0    0    0    0    0    0    9    0    9    0

$$$$
