mobley_3210206.pdb
 OpenBabel09222014463D

 17 16  0  0  1  0  0  0  0  0999 V2000
   -0.4240    0.8110    0.6000 C   0  0  0  0  0  0  0  0  0  0  0  0
   -0.1830    0.5830    2.0850 C   0  0  1  0  0  0  0  0  0  0  0  0
    0.8910    0.5690    2.3020 H   0  0  0  0  0  0  0  0  0  0  0  0
   -0.8750    1.6440    2.9310 C   0  0  0  0  0  0  0  0  0  0  0  0
   -0.6160    1.3810    4.3060 O   0  0  0  0  0  0  0  0  0  0  0  0
   -1.2210    2.3190    5.1860 N   0  0  0  0  0  0  0  0  0  0  0  0
   -1.8830    3.2300    4.6850 O   0  5  0  0  0  0  0  0  0  0  0  0
   -0.9890    2.0790    6.3720 O   0  5  0  0  0  0  0  0  0  0  0  0
   -0.7100   -0.6920    2.4480 O   0  0  0  0  0  0  0  0  0  0  0  0
    0.1490   -1.7720    2.1100 N   0  0  0  0  0  0  0  0  0  0  0  0
    1.2190   -1.5060    1.5590 O   0  5  0  0  0  0  0  0  0  0  0  0
   -0.3180   -2.8670    2.4290 O   0  5  0  0  0  0  0  0  0  0  0  0
   -1.4970    0.8250    0.3840 H   0  0  0  0  0  0  0  0  0  0  0  0
    0.0100    1.7590    0.2680 H   0  0  0  0  0  0  0  0  0  0  0  0
    0.0060   -0.0020    0.0040 H   0  0  0  0  0  0  0  0  0  0  0  0
   -0.4940    2.6450    2.7030 H   0  0  0  0  0  0  0  0  0  0  0  0
   -1.9590    1.6230    2.7800 H   0  0  0  0  0  0  0  0  0  0  0  0
  1  2  1  0  0  0  0
  1 13  1  0  0  0  0
  1 14  1  0  0  0  0
  1 15  1  0  0  0  0
  2  3  1  1  0  0  0
  2  4  1  0  0  0  0
  2  9  1  0  0  0  0
  4  5  1  0  0  0  0
  4 16  1  0  0  0  0
  4 17  1  0  0  0  0
  5  6  1  0  0  0  0
  6  7  2  0  0  0  0
  6  8  2  0  0  0  0
  9 10  1  0  0  0  0
 10 11  2  0  0  0  0
 10 12  2  0  0  0  0
M  CHG  4   7  -1   8  -1  11  -1  12  -1
M  END
>  <COMPND>
    mobley_3210206 

>  <AUTHOR>
    GENERATED BY OPEN BABEL 2.3.2

>  <MASTER>
        0    0    0    0    0    0    0    0   17    0   17    0

$$$$
