mobley_2789243.pdb
 OpenBabel09222014463D

 11 11  0  0  0  0  0  0  0  0999 V2000
    1.6520   -0.6230    2.9000 C   0  0  0  0  0  0  0  0  0  0  0  0
    1.3880   -0.0680    1.6520 C   0  0  0  0  0  0  0  0  0  0  0  0
    0.2270   -0.4200    0.9730 C   0  0  0  0  0  0  0  0  0  0  0  0
   -0.6320   -1.3220    1.5800 C   0  0  0  0  0  0  0  0  0  0  0  0
   -0.4090   -1.8820    2.7910 N   0  0  0  0  0  0  0  0  0  0  0  0
    0.7300   -1.5160    3.4210 C   0  0  0  0  0  0  0  0  0  0  0  0
   -0.1320    0.2430   -0.5670 Cl  0  0  0  0  0  0  0  0  0  0  0  0
    2.5510   -0.3640    3.4470 H   0  0  0  0  0  0  0  0  0  0  0  0
    2.0950    0.6350    1.2210 H   0  0  0  0  0  0  0  0  0  0  0  0
   -1.5540   -1.6370    1.1020 H   0  0  0  0  0  0  0  0  0  0  0  0
    0.8890   -1.9760    4.3900 H   0  0  0  0  0  0  0  0  0  0  0  0
  1  6  2  0  0  0  0
  1  2  1  0  0  0  0
  1  8  1  0  0  0  0
  2  3  2  0  0  0  0
  2  9  1  0  0  0  0
  3  4  1  0  0  0  0
  3  7  1  0  0  0  0
  4  5  2  0  0  0  0
  4 10  1  0  0  0  0
  5  6  1  0  0  0  0
  6 11  1  0  0  0  0
M  END
>  <COMPND>
    mobley_2789243 

>  <AUTHOR>
    GENERATED BY OPEN BABEL 2.3.2

>  <MASTER>
        0    0    0    0    0    0    0    0   11    0   11    0

$$$$
