mobley_6843802.pdb
 OpenBabel09222014463D

 19 19  0  0  1  0  0  0  0  0999 V2000
    1.8850   -1.0360   -0.1120 C   0  0  0  0  0  0  0  0  0  0  0  0
    2.9210   -1.6310    0.6080 C   0  0  0  0  0  0  0  0  0  0  0  0
    2.8780   -1.6520    2.0020 C   0  0  0  0  0  0  0  0  0  0  0  0
    1.8000   -1.0790    2.6760 C   0  0  0  0  0  0  0  0  0  0  0  0
    0.7640   -0.4840    1.9550 C   0  0  0  0  0  0  0  0  0  0  0  0
    0.8070   -0.4630    0.5610 C   0  0  0  0  0  0  0  0  0  0  0  0
    1.7590   -1.0980    4.0360 O   0  0  0  0  0  0  0  0  0  0  0  0
    3.0020   -1.0830    4.7400 C   0  0  1  0  0  0  0  0  0  0  0  0
    3.7800   -0.5500    4.1800 H   0  0  0  0  0  0  0  0  0  0  0  0
    2.7980   -0.4230    6.0830 C   0  0  0  0  0  0  0  0  0  0  0  0
    1.8800   -1.1170    6.7980 F   0  0  0  0  0  0  0  0  0  0  0  0
    3.9560   -0.4590    6.7890 F   0  0  0  0  0  0  0  0  0  0  0  0
    3.3980   -2.3660    4.9530 F   0  0  0  0  0  0  0  0  0  0  0  0
    1.9180   -1.0210   -1.1980 H   0  0  0  0  0  0  0  0  0  0  0  0
    3.7600   -2.0770    0.0830 H   0  0  0  0  0  0  0  0  0  0  0  0
    3.6890   -2.1150    2.5580 H   0  0  0  0  0  0  0  0  0  0  0  0
   -0.0790   -0.0350    2.4740 H   0  0  0  0  0  0  0  0  0  0  0  0
    0.0000    0.0000    0.0000 H   0  0  0  0  0  0  0  0  0  0  0  0
    2.4780    0.6190    5.9970 H   0  0  0  0  0  0  0  0  0  0  0  0
  1  6  2  0  0  0  0
  1  2  1  0  0  0  0
  1 14  1  0  0  0  0
  2  3  2  0  0  0  0
  2 15  1  0  0  0  0
  3  4  1  0  0  0  0
  3 16  1  0  0  0  0
  4  5  2  0  0  0  0
  4  7  1  0  0  0  0
  5  6  1  0  0  0  0
  5 17  1  0  0  0  0
  6 18  1  0  0  0  0
  7  8  1  0  0  0  0
  8  9  1  6  0  0  0
  8 10  1  0  0  0  0
  8 13  1  0  0  0  0
 10 11  1  0  0  0  0
 10 12  1  0  0  0  0
 10 19  1  0  0  0  0
M  END
>  <COMPND>
    mobley_6843802 

>  <AUTHOR>
    GENERATED BY OPEN BABEL 2.3.2

>  <MASTER>
        0    0    0    0    0    0    0    0   19    0   19    0

$$$$
