mobley_2681549.pdb
 OpenBabel09222014463D

 12 12  0  0  0  0  0  0  0  0999 V2000
    1.8850   -1.0360   -0.1120 C   0  0  0  0  0  0  0  0  0  0  0  0
    2.9210   -1.6310    0.6080 C   0  0  0  0  0  0  0  0  0  0  0  0
    2.8780   -1.6520    2.0020 C   0  0  0  0  0  0  0  0  0  0  0  0
    1.8000   -1.0790    2.6760 C   0  0  0  0  0  0  0  0  0  0  0  0
    0.7640   -0.4840    1.9550 C   0  0  0  0  0  0  0  0  0  0  0  0
    0.8070   -0.4630    0.5610 C   0  0  0  0  0  0  0  0  0  0  0  0
   -0.4710    0.2710   -0.3280 Cl  0  0  0  0  0  0  0  0  0  0  0  0
    1.7470   -1.1050    4.3960 Cl  0  0  0  0  0  0  0  0  0  0  0  0
    4.2530   -2.3380   -0.2220 Cl  0  0  0  0  0  0  0  0  0  0  0  0
    1.9180   -1.0200   -1.2000 H   0  0  0  0  0  0  0  0  0  0  0  0
    3.6860   -2.1160    2.5640 H   0  0  0  0  0  0  0  0  0  0  0  0
   -0.0780   -0.0370    2.4800 H   0  0  0  0  0  0  0  0  0  0  0  0
  1  6  2  0  0  0  0
  1  2  1  0  0  0  0
  1 10  1  0  0  0  0
  2  3  2  0  0  0  0
  2  9  1  0  0  0  0
  3  4  1  0  0  0  0
  3 11  1  0  0  0  0
  4  5  2  0  0  0  0
  4  8  1  0  0  0  0
  5  6  1  0  0  0  0
  5 12  1  0  0  0  0
  6  7  1  0  0  0  0
M  END
>  <COMPND>
    mobley_2681549 

>  <AUTHOR>
    GENERATED BY OPEN BABEL 2.3.2

>  <MASTER>
        0    0    0    0    0    0    0    0   12    0   12    0

$$$$
