mobley_2481002.pdb
 OpenBabel09222014463D

  7  6  0  0  0  0  0  0  0  0999 V2000
   -0.0380    0.1700    0.5740 C   0  0  0  0  0  0  0  0  0  0  0  0
    0.0430   -0.2730   -0.8750 N   0  0  0  0  0  0  0  0  0  0  0  0
    0.5320    0.5270   -1.6890 O   0  5  0  0  0  0  0  0  0  0  0  0
   -0.3550   -1.4070   -1.1780 O   0  5  0  0  0  0  0  0  0  0  0  0
   -1.0450    1.6170    0.5840 Cl  0  0  0  0  0  0  0  0  0  0  0  0
   -0.7650   -1.1170    1.5360 Cl  0  0  0  0  0  0  0  0  0  0  0  0
    1.6290    0.4800    1.0500 Cl  0  0  0  0  0  0  0  0  0  0  0  0
  1  2  1  0  0  0  0
  1  5  1  0  0  0  0
  1  6  1  0  0  0  0
  1  7  1  0  0  0  0
  2  3  2  0  0  0  0
  2  4  2  0  0  0  0
M  CHG  2   3  -1   4  -1
M  END
>  <COMPND>
    mobley_2481002 

>  <AUTHOR>
    GENERATED BY OPEN BABEL 2.3.2

>  <MASTER>
        0    0    0    0    0    0    0    0    7    0    7    0

$$$$
