mobley_4687447.pdb
 OpenBabel09222014463D

 19 18  0  0  0  0  0  0  0  0999 V2000
   -0.0020   -0.6660    0.8690 C   0  0  0  0  0  0  0  0  0  0  0  0
    1.2440   -0.4430    1.7060 C   0  0  0  0  0  0  0  0  0  0  0  0
    1.2750   -1.3490    2.9270 C   0  0  0  0  0  0  0  0  0  0  0  0
    2.4630   -1.0900    3.6620 O   0  0  0  0  0  0  0  0  0  0  0  0
    2.5500   -1.9090    4.8200 C   0  0  0  0  0  0  0  0  0  0  0  0
    3.8340   -1.5870    5.5600 C   0  0  0  0  0  0  0  0  0  0  0  0
    4.9400   -1.8430    4.7030 O   0  0  0  0  0  0  0  0  0  0  0  0
   -0.0100   -0.0070   -0.0060 H   0  0  0  0  0  0  0  0  0  0  0  0
   -0.0430   -1.7000    0.5150 H   0  0  0  0  0  0  0  0  0  0  0  0
   -0.9070   -0.4710    1.4530 H   0  0  0  0  0  0  0  0  0  0  0  0
    1.2970    0.6050    2.0240 H   0  0  0  0  0  0  0  0  0  0  0  0
    2.1390   -0.6180    1.0960 H   0  0  0  0  0  0  0  0  0  0  0  0
    0.4150   -1.1590    3.5770 H   0  0  0  0  0  0  0  0  0  0  0  0
    1.2710   -2.4040    2.6320 H   0  0  0  0  0  0  0  0  0  0  0  0
    1.6740   -1.7100    5.4470 H   0  0  0  0  0  0  0  0  0  0  0  0
    2.5440   -2.9560    4.5020 H   0  0  0  0  0  0  0  0  0  0  0  0
    3.9430   -2.2120    6.4520 H   0  0  0  0  0  0  0  0  0  0  0  0
    3.8590   -0.5310    5.8450 H   0  0  0  0  0  0  0  0  0  0  0  0
    5.7400   -1.6270    5.2080 H   0  0  0  0  0  0  0  0  0  0  0  0
  1  2  1  0  0  0  0
  1  8  1  0  0  0  0
  1  9  1  0  0  0  0
  1 10  1  0  0  0  0
  2  3  1  0  0  0  0
  2 11  1  0  0  0  0
  2 12  1  0  0  0  0
  3  4  1  0  0  0  0
  3 13  1  0  0  0  0
  3 14  1  0  0  0  0
  4  5  1  0  0  0  0
  5  6  1  0  0  0  0
  5 15  1  0  0  0  0
  5 16  1  0  0  0  0
  6  7  1  0  0  0  0
  6 17  1  0  0  0  0
  6 18  1  0  0  0  0
  7 19  1  0  0  0  0
M  END
>  <COMPND>
    mobley_4687447 

>  <AUTHOR>
    GENERATED BY OPEN BABEL 2.3.2

>  <MASTER>
        0    0    0    0    0    0    0    0   19    0   19    0

$$$$
