mobley_2492140.pdb
 OpenBabel09222014463D

  8  7  0  0  0  0  0  0  0  0999 V2000
   -0.4800    0.4780    0.4150 C   0  0  0  0  0  0  0  0  0  0  0  0
    0.4190   -0.5370   -0.3190 C   0  0  0  0  0  0  0  0  0  0  0  0
   -0.5170   -1.8890   -1.0360 Cl  0  0  0  0  0  0  0  0  0  0  0  0
    1.3380    0.2740   -1.6380 Cl  0  0  0  0  0  0  0  0  0  0  0  0
    1.6370   -1.2320    0.8100 Cl  0  0  0  0  0  0  0  0  0  0  0  0
    0.4470    1.8340    1.1360 Cl  0  0  0  0  0  0  0  0  0  0  0  0
   -1.7450    1.1810   -0.6440 Cl  0  0  0  0  0  0  0  0  0  0  0  0
   -1.0080   -0.0050    1.2440 H   0  0  0  0  0  0  0  0  0  0  0  0
  1  2  1  0  0  0  0
  1  6  1  0  0  0  0
  1  7  1  0  0  0  0
  1  8  1  0  0  0  0
  2  3  1  0  0  0  0
  2  4  1  0  0  0  0
  2  5  1  0  0  0  0
M  END
>  <COMPND>
    mobley_2492140 

>  <AUTHOR>
    GENERATED BY OPEN BABEL 2.3.2

>  <MASTER>
        0    0    0    0    0    0    0    0    8    0    8    0

$$$$
