mobley_3187514.pdb
 OpenBabel09222014463D

 17 17  0  0  0  0  0  0  0  0999 V2000
    1.9560   -1.0270   -1.6050 C   0  0  0  0  0  0  0  0  0  0  0  0
    1.8850   -1.0360   -0.1120 C   0  0  0  0  0  0  0  0  0  0  0  0
    2.9210   -1.6310    0.6080 C   0  0  0  0  0  0  0  0  0  0  0  0
    2.8780   -1.6520    2.0020 C   0  0  0  0  0  0  0  0  0  0  0  0
    1.8000   -1.0790    2.6760 C   0  0  0  0  0  0  0  0  0  0  0  0
    0.7640   -0.4840    1.9550 C   0  0  0  0  0  0  0  0  0  0  0  0
    0.8070   -0.4630    0.5610 C   0  0  0  0  0  0  0  0  0  0  0  0
   -0.2510    0.1430   -0.1520 N   0  0  0  0  0  0  0  0  0  0  0  0
    2.4710   -0.1250   -1.9500 H   0  0  0  0  0  0  0  0  0  0  0  0
    2.4950   -1.9060   -1.9760 H   0  0  0  0  0  0  0  0  0  0  0  0
    0.9540   -1.0530   -2.0440 H   0  0  0  0  0  0  0  0  0  0  0  0
    3.7650   -2.0810    0.0930 H   0  0  0  0  0  0  0  0  0  0  0  0
    3.6850   -2.1150    2.5630 H   0  0  0  0  0  0  0  0  0  0  0  0
    1.7660   -1.0950    3.7610 H   0  0  0  0  0  0  0  0  0  0  0  0
   -0.0710   -0.0400    2.4910 H   0  0  0  0  0  0  0  0  0  0  0  0
   -0.1960    0.1990   -1.1480 H   0  0  0  0  0  0  0  0  0  0  0  0
   -0.9880    0.5880    0.3560 H   0  0  0  0  0  0  0  0  0  0  0  0
  1  2  1  0  0  0  0
  1  9  1  0  0  0  0
  1 10  1  0  0  0  0
  1 11  1  0  0  0  0
  2  7  2  0  0  0  0
  2  3  1  0  0  0  0
  3  4  2  0  0  0  0
  3 12  1  0  0  0  0
  4  5  1  0  0  0  0
  4 13  1  0  0  0  0
  5  6  2  0  0  0  0
  5 14  1  0  0  0  0
  6  7  1  0  0  0  0
  6 15  1  0  0  0  0
  7  8  1  0  0  0  0
  8 16  1  0  0  0  0
  8 17  1  0  0  0  0
M  END
>  <COMPND>
    mobley_3187514 

>  <AUTHOR>
    GENERATED BY OPEN BABEL 2.3.2

>  <MASTER>
        0    0    0    0    0    0    0    0   17    0   17    0

$$$$
