mobley_1857976.pdb
 OpenBabel09222014463D

  8  7  0  0  0  0  0  0  0  0999 V2000
   -0.0310    0.4540   -0.6220 C   0  0  0  0  0  0  0  0  0  0  0  0
    0.1910   -0.5800    0.4690 C   0  0  0  0  0  0  0  0  0  0  0  0
   -0.0800    0.1010    2.0920 Cl  0  0  0  0  0  0  0  0  0  0  0  0
   -1.6910    1.0960   -0.5970 Cl  0  0  0  0  0  0  0  0  0  0  0  0
    0.6600    1.2960   -0.5250 H   0  0  0  0  0  0  0  0  0  0  0  0
    0.1210   -0.0010   -1.6050 H   0  0  0  0  0  0  0  0  0  0  0  0
    1.2240   -0.9380    0.4410 H   0  0  0  0  0  0  0  0  0  0  0  0
   -0.4720   -1.4420    0.3490 H   0  0  0  0  0  0  0  0  0  0  0  0
  1  2  1  0  0  0  0
  1  4  1  0  0  0  0
  1  5  1  0  0  0  0
  1  6  1  0  0  0  0
  2  3  1  0  0  0  0
  2  7  1  0  0  0  0
  2  8  1  0  0  0  0
M  END
>  <COMPND>
    mobley_1857976 

>  <AUTHOR>
    GENERATED BY OPEN BABEL 2.3.2

>  <MASTER>
        0    0    0    0    0    0    0    0    8    0    8    0

$$$$
