mobley_4364398.pdb
 OpenBabel09222014463D

  5  4  0  0  0  0  0  0  0  0999 V2000
   -0.1830    0.0220   -0.0280 C   0  0  0  0  0  0  0  0  0  0  0  0
    1.8910   -0.2250    0.2860 I   0  0  0  0  0  0  0  0  0  0  0  0
   -0.6180    0.6890    0.7220 H   0  0  0  0  0  0  0  0  0  0  0  0
   -0.3830    0.4510   -1.0140 H   0  0  0  0  0  0  0  0  0  0  0  0
   -0.7070   -0.9370    0.0330 H   0  0  0  0  0  0  0  0  0  0  0  0
  1  2  1  0  0  0  0
  1  3  1  0  0  0  0
  1  4  1  0  0  0  0
  1  5  1  0  0  0  0
M  END
>  <COMPND>
    mobley_4364398 

>  <AUTHOR>
    GENERATED BY OPEN BABEL 2.3.2

>  <MASTER>
        0    0    0    0    0    0    0    0    5    0    5    0

$$$$
