mobley_4371692.pdb
 OpenBabel09222014463D

 27 29  0  0  0  0  0  0  0  0999 V2000
    1.2900   -1.6870   -0.3520 C   0  0  0  0  0  0  0  0  0  0  0  0
    0.9560   -0.4630    0.2260 C   0  0  0  0  0  0  0  0  0  0  0  0
    1.8480    0.1680    1.0930 C   0  0  0  0  0  0  0  0  0  0  0  0
    3.0810   -0.4280    1.3840 C   0  0  0  0  0  0  0  0  0  0  0  0
    3.4160   -1.6540    0.8060 C   0  0  0  0  0  0  0  0  0  0  0  0
    2.5180   -2.2840   -0.0640 C   0  0  0  0  0  0  0  0  0  0  0  0
    4.7130   -2.2940    1.1040 C   0  0  0  0  0  0  0  0  0  0  0  0
    4.9720   -3.3690    0.5780 O   0  0  0  0  0  0  0  0  0  0  0  0
    5.6520   -1.6180    2.0240 C   0  0  0  0  0  0  0  0  0  0  0  0
    6.8850   -2.2140    2.3150 C   0  0  0  0  0  0  0  0  0  0  0  0
    7.7770   -1.5830    3.1820 C   0  0  0  0  0  0  0  0  0  0  0  0
    7.4420   -0.3590    3.7590 C   0  0  0  0  0  0  0  0  0  0  0  0
    6.2150    0.2380    3.4720 C   0  0  0  0  0  0  0  0  0  0  0  0
    5.3170   -0.3920    2.6020 C   0  0  0  0  0  0  0  0  0  0  0  0
    4.0190    0.2480    2.3040 C   0  0  0  0  0  0  0  0  0  0  0  0
    3.7020    1.3230    2.7970 O   0  0  0  0  0  0  0  0  0  0  0  0
    5.9500    1.4350    4.0690 O   0  0  0  0  0  0  0  0  0  0  0  0
    7.2930   -3.4520    1.7680 N   0  0  0  0  0  0  0  0  0  0  0  0
    0.5940   -2.1750   -1.0270 H   0  0  0  0  0  0  0  0  0  0  0  0
    0.0000    0.0000   -0.0010 H   0  0  0  0  0  0  0  0  0  0  0  0
    1.5630    1.1220    1.5280 H   0  0  0  0  0  0  0  0  0  0  0  0
    2.7520   -3.2380   -0.5280 H   0  0  0  0  0  0  0  0  0  0  0  0
    8.7370   -2.0340    3.4170 H   0  0  0  0  0  0  0  0  0  0  0  0
    8.1450    0.1240    4.4340 H   0  0  0  0  0  0  0  0  0  0  0  0
    6.6940    1.7000    4.6310 H   0  0  0  0  0  0  0  0  0  0  0  0
    6.6610   -3.9550    1.1810 H   0  0  0  0  0  0  0  0  0  0  0  0
    8.1660   -3.8440    2.0550 H   0  0  0  0  0  0  0  0  0  0  0  0
  1  6  2  0  0  0  0
  1  2  1  0  0  0  0
  1 19  1  0  0  0  0
  2  3  2  0  0  0  0
  2 20  1  0  0  0  0
  3  4  1  0  0  0  0
  3 21  1  0  0  0  0
  4 15  1  0  0  0  0
  4  5  2  0  0  0  0
  5  6  1  0  0  0  0
  5  7  1  0  0  0  0
  6 22  1  0  0  0  0
  7  8  2  0  0  0  0
  7  9  1  0  0  0  0
  9 14  2  0  0  0  0
  9 10  1  0  0  0  0
 10 11  2  0  0  0  0
 10 18  1  0  0  0  0
 11 12  1  0  0  0  0
 11 23  1  0  0  0  0
 12 13  2  0  0  0  0
 12 24  1  0  0  0  0
 13 14  1  0  0  0  0
 13 17  1  0  0  0  0
 14 15  1  0  0  0  0
 15 16  2  0  0  0  0
 17 25  1  0  0  0  0
 18 26  1  0  0  0  0
 18 27  1  0  0  0  0
M  END
>  <COMPND>
    mobley_4371692 

>  <AUTHOR>
    GENERATED BY OPEN BABEL 2.3.2

>  <MASTER>
        0    0    0    0    0    0    0    0   27    0   27    0

$$$$
