mobley_5494918.pdb
 OpenBabel09222014463D

  9  8  0  0  0  0  0  0  0  0999 V2000
    0.2900    0.3330    0.3160 C   0  0  0  0  0  0  0  0  0  0  0  0
   -0.2550   -0.3390    1.3350 C   0  0  0  0  0  0  0  0  0  0  0  0
    0.0440   -0.0240    2.6120 F   0  0  0  0  0  0  0  0  0  0  0  0
   -1.1170   -1.3470    1.0820 F   0  0  0  0  0  0  0  0  0  0  0  0
    0.0290    0.0660   -1.1230 C   0  0  0  0  0  0  0  0  0  0  0  0
    0.7070    0.8890   -1.9620 F   0  0  0  0  0  0  0  0  0  0  0  0
    0.3710   -1.2040   -1.4590 F   0  0  0  0  0  0  0  0  0  0  0  0
   -1.2890    0.2060   -1.4180 F   0  0  0  0  0  0  0  0  0  0  0  0
    1.1490    1.3350    0.6170 F   0  0  0  0  0  0  0  0  0  0  0  0
  1  2  2  0  0  0  0
  1  5  1  0  0  0  0
  1  9  1  0  0  0  0
  2  3  1  0  0  0  0
  2  4  1  0  0  0  0
  5  6  1  0  0  0  0
  5  7  1  0  0  0  0
  5  8  1  0  0  0  0
M  END
>  <COMPND>
    mobley_5494918 

>  <AUTHOR>
    GENERATED BY OPEN BABEL 2.3.2

>  <MASTER>
        0    0    0    0    0    0    0    0    9    0    9    0

$$$$
