mobley_4620651.pdb
 OpenBabel09222014463D

 15 15  0  0  0  0  0  0  0  0999 V2000
   -1.8560   -1.8500   -3.2200 C   0  0  0  0  0  0  0  0  0  0  0  0
   -1.2590   -1.6960   -1.9290 O   0  0  0  0  0  0  0  0  0  0  0  0
   -1.6380   -0.5840   -1.2370 C   0  0  0  0  0  0  0  0  0  0  0  0
   -2.4250    0.2730   -1.6140 O   0  0  0  0  0  0  0  0  0  0  0  0
   -0.9370   -0.5550    0.0880 C   0  0  0  0  0  0  0  0  0  0  0  0
   -1.5410   -1.3090    1.2220 C   0  0  0  0  0  0  0  0  0  0  0  0
   -1.5750    0.1890    1.2090 C   0  0  0  0  0  0  0  0  0  0  0  0
   -1.4870   -2.7670   -3.6860 H   0  0  0  0  0  0  0  0  0  0  0  0
   -1.6090   -0.9870   -3.8420 H   0  0  0  0  0  0  0  0  0  0  0  0
   -2.9410   -1.9140   -3.1040 H   0  0  0  0  0  0  0  0  0  0  0  0
    0.1310   -0.5330   -0.0030 H   0  0  0  0  0  0  0  0  0  0  0  0
   -2.4780   -1.8350    1.0800 H   0  0  0  0  0  0  0  0  0  0  0  0
   -0.8570   -1.7930    1.9080 H   0  0  0  0  0  0  0  0  0  0  0  0
   -2.5340    0.6700    1.0570 H   0  0  0  0  0  0  0  0  0  0  0  0
   -0.9140    0.7150    1.8870 H   0  0  0  0  0  0  0  0  0  0  0  0
  1  2  1  0  0  0  0
  1  8  1  0  0  0  0
  1  9  1  0  0  0  0
  1 10  1  0  0  0  0
  2  3  1  0  0  0  0
  3  4  2  0  0  0  0
  3  5  1  0  0  0  0
  5  7  1  0  0  0  0
  5  6  1  0  0  0  0
  5 11  1  0  0  0  0
  6  7  1  0  0  0  0
  6 12  1  0  0  0  0
  6 13  1  0  0  0  0
  7 14  1  0  0  0  0
  7 15  1  0  0  0  0
M  END
>  <COMPND>
    mobley_4620651 

>  <AUTHOR>
    GENERATED BY OPEN BABEL 2.3.2

>  <MASTER>
        0    0    0    0    0    0    0    0   15    0   15    0

$$$$
