mobley_8522124.pdb
 OpenBabel09222014463D

 22 21  0  0  0  0  0  0  0  0999 V2000
    1.8120    2.4180    1.8770 C   0  0  0  0  0  0  0  0  0  0  0  0
    1.6000    1.0790    1.1880 C   0  0  0  0  0  0  0  0  0  0  0  0
    0.1490    0.9040    0.7410 C   0  0  0  0  0  0  0  0  0  0  0  0
   -0.0610   -0.4450    0.0480 C   0  0  0  0  0  0  0  0  0  0  0  0
   -1.5160   -0.6190   -0.3990 C   0  0  0  0  0  0  0  0  0  0  0  0
   -1.7680   -1.9560   -1.0970 C   0  0  0  0  0  0  0  0  0  0  0  0
   -3.1670   -2.1100   -1.5210 C   0  0  0  0  0  0  0  0  0  0  0  0
   -4.3090   -2.2400   -1.8680 C   0  0  0  0  0  0  0  0  0  0  0  0
    2.8530    2.5350    2.1940 H   0  0  0  0  0  0  0  0  0  0  0  0
    1.1770    2.4920    2.7650 H   0  0  0  0  0  0  0  0  0  0  0  0
    1.5600    3.2470    1.2090 H   0  0  0  0  0  0  0  0  0  0  0  0
    1.8780    0.2730    1.8770 H   0  0  0  0  0  0  0  0  0  0  0  0
    2.2680    1.0110    0.3220 H   0  0  0  0  0  0  0  0  0  0  0  0
   -0.5150    0.9770    1.6110 H   0  0  0  0  0  0  0  0  0  0  0  0
   -0.1250    1.7150    0.0560 H   0  0  0  0  0  0  0  0  0  0  0  0
    0.2110   -1.2560    0.7350 H   0  0  0  0  0  0  0  0  0  0  0  0
    0.6100   -0.5150   -0.8160 H   0  0  0  0  0  0  0  0  0  0  0  0
   -1.8010    0.2100   -1.0590 H   0  0  0  0  0  0  0  0  0  0  0  0
   -2.1660   -0.5620    0.4830 H   0  0  0  0  0  0  0  0  0  0  0  0
   -1.5180   -2.7670   -0.4030 H   0  0  0  0  0  0  0  0  0  0  0  0
   -1.1000   -2.0610   -1.9600 H   0  0  0  0  0  0  0  0  0  0  0  0
   -5.3220   -2.3530   -2.1750 H   0  0  0  0  0  0  0  0  0  0  0  0
  1  2  1  0  0  0  0
  1  9  1  0  0  0  0
  1 10  1  0  0  0  0
  1 11  1  0  0  0  0
  2  3  1  0  0  0  0
  2 12  1  0  0  0  0
  2 13  1  0  0  0  0
  3  4  1  0  0  0  0
  3 14  1  0  0  0  0
  3 15  1  0  0  0  0
  4  5  1  0  0  0  0
  4 16  1  0  0  0  0
  4 17  1  0  0  0  0
  5  6  1  0  0  0  0
  5 18  1  0  0  0  0
  5 19  1  0  0  0  0
  6  7  1  0  0  0  0
  6 20  1  0  0  0  0
  6 21  1  0  0  0  0
  7  8  3  0  0  0  0
  8 22  1  0  0  0  0
M  END
>  <COMPND>
    mobley_8522124 

>  <AUTHOR>
    GENERATED BY OPEN BABEL 2.3.2

>  <MASTER>
        0    0    0    0    0    0    0    0   22    0   22    0

$$$$
