mobley_1929982.pdb
 OpenBabel09222014463D

  3  2  0  0  0  0  0  0  0  0999 V2000
    0.0510    0.6040    0.0910 S   0  0  0  0  0  0  0  0  0  0  0  0
    0.9470   -0.3830   -0.0520 H   0  0  0  0  0  0  0  0  0  0  0  0
   -0.9980   -0.2210   -0.0390 H   0  0  0  0  0  0  0  0  0  0  0  0
  1  2  1  0  0  0  0
  1  3  1  0  0  0  0
M  END
>  <COMPND>
    mobley_1929982 

>  <AUTHOR>
    GENERATED BY OPEN BABEL 2.3.2

>  <MASTER>
        0    0    0    0    0    0    0    0    3    0    3    0

$$$$
