mobley_511661.pdb
 OpenBabel09222014463D

 10  9  0  0  0  0  0  0  0  0999 V2000
    0.2090    0.2290    1.0400 C   0  0  0  0  0  0  0  0  0  0  0  0
   -0.4860   -0.3690    2.0140 C   0  0  0  0  0  0  0  0  0  0  0  0
   -1.5320   -1.3320    1.7660 C   0  0  0  0  0  0  0  0  0  0  0  0
   -2.2270   -1.9300    2.7410 C   0  0  0  0  0  0  0  0  0  0  0  0
    0.9920    0.9500    1.2500 H   0  0  0  0  0  0  0  0  0  0  0  0
    0.0000    0.0000    0.0000 H   0  0  0  0  0  0  0  0  0  0  0  0
   -0.2560   -0.1230    3.0470 H   0  0  0  0  0  0  0  0  0  0  0  0
   -1.7620   -1.5790    0.7330 H   0  0  0  0  0  0  0  0  0  0  0  0
   -3.0090   -2.6510    2.5300 H   0  0  0  0  0  0  0  0  0  0  0  0
   -2.0170   -1.7020    3.7800 H   0  0  0  0  0  0  0  0  0  0  0  0
  1  2  2  0  0  0  0
  1  5  1  0  0  0  0
  1  6  1  0  0  0  0
  2  3  1  0  0  0  0
  2  7  1  0  0  0  0
  3  4  2  0  0  0  0
  3  8  1  0  0  0  0
  4  9  1  0  0  0  0
  4 10  1  0  0  0  0
M  END
>  <COMPND>
    mobley_511661 

>  <AUTHOR>
    GENERATED BY OPEN BABEL 2.3.2

>  <MASTER>
        0    0    0    0    0    0    0    0   10    0   10    0

$$$$
