mobley_2269032.pdb
 OpenBabel09222014463D

 31 32  0  0  1  0  0  0  0  0999 V2000
   -2.1510   -2.0710    2.3890 C   0  0  0  0  0  0  0  0  0  0  0  0
   -1.8840   -1.7020    0.9280 C   0  0  1  0  0  0  0  0  0  0  0  0
   -2.0050   -0.6140    0.8310 H   0  0  0  0  0  0  0  0  0  0  0  0
   -0.4970   -2.0340    0.4940 C   0  0  0  0  0  0  0  0  0  0  0  0
    0.3500   -1.0280    0.0390 C   0  0  0  0  0  0  0  0  0  0  0  0
    1.6480   -1.3370   -0.3660 C   0  0  0  0  0  0  0  0  0  0  0  0
    2.1170   -2.6600   -0.3220 C   0  0  0  0  0  0  0  0  0  0  0  0
    3.4210   -2.9900   -0.7270 C   0  0  0  0  0  0  0  0  0  0  0  0
    3.8690   -4.3100   -0.6760 C   0  0  0  0  0  0  0  0  0  0  0  0
    3.0230   -5.3170   -0.2210 C   0  0  0  0  0  0  0  0  0  0  0  0
    1.7240   -5.0070    0.1850 C   0  0  0  0  0  0  0  0  0  0  0  0
    1.2560   -3.6840    0.1400 C   0  0  0  0  0  0  0  0  0  0  0  0
   -0.0480   -3.3540    0.5450 C   0  0  0  0  0  0  0  0  0  0  0  0
    5.1360   -4.6130   -1.0720 O   0  0  0  0  0  0  0  0  0  0  0  0
    5.5300   -5.9820   -0.9940 C   0  0  0  0  0  0  0  0  0  0  0  0
   -2.9240   -2.3500    0.0250 C   0  0  0  0  0  0  0  0  0  0  0  0
   -3.4920   -3.4100    0.2470 O   0  0  0  0  0  0  0  0  0  0  0  0
   -3.1640   -1.6120   -1.0910 O   0  0  0  0  0  0  0  0  0  0  0  0
   -2.0480   -3.1470    2.5650 H   0  0  0  0  0  0  0  0  0  0  0  0
   -1.4630   -1.5470    3.0620 H   0  0  0  0  0  0  0  0  0  0  0  0
   -3.1720   -1.8000    2.6800 H   0  0  0  0  0  0  0  0  0  0  0  0
    0.0080    0.0030   -0.0030 H   0  0  0  0  0  0  0  0  0  0  0  0
    2.2920   -0.5340   -0.7190 H   0  0  0  0  0  0  0  0  0  0  0  0
    4.0950   -2.2150   -1.0850 H   0  0  0  0  0  0  0  0  0  0  0  0
    3.3660   -6.3470   -0.1790 H   0  0  0  0  0  0  0  0  0  0  0  0
    1.0800   -5.8100    0.5370 H   0  0  0  0  0  0  0  0  0  0  0  0
   -0.7200   -4.1320    0.9030 H   0  0  0  0  0  0  0  0  0  0  0  0
    6.5590   -6.0750   -1.3400 H   0  0  0  0  0  0  0  0  0  0  0  0
    4.8620   -6.5790   -1.6140 H   0  0  0  0  0  0  0  0  0  0  0  0
    5.4580   -6.3030    0.0440 H   0  0  0  0  0  0  0  0  0  0  0  0
   -2.6500   -0.7790   -1.1640 H   0  0  0  0  0  0  0  0  0  0  0  0
  1  2  1  0  0  0  0
  1 19  1  0  0  0  0
  1 20  1  0  0  0  0
  1 21  1  0  0  0  0
  2  3  1  6  0  0  0
  2  4  1  0  0  0  0
  2 16  1  0  0  0  0
  4 13  2  0  0  0  0
  4  5  1  0  0  0  0
  5  6  2  0  0  0  0
  5 22  1  0  0  0  0
  6  7  1  0  0  0  0
  6 23  1  0  0  0  0
  7 12  2  0  0  0  0
  7  8  1  0  0  0  0
  8  9  2  0  0  0  0
  8 24  1  0  0  0  0
  9 10  1  0  0  0  0
  9 14  1  0  0  0  0
 10 11  2  0  0  0  0
 10 25  1  0  0  0  0
 11 12  1  0  0  0  0
 11 26  1  0  0  0  0
 12 13  1  0  0  0  0
 13 27  1  0  0  0  0
 14 15  1  0  0  0  0
 15 28  1  0  0  0  0
 15 29  1  0  0  0  0
 15 30  1  0  0  0  0
 16 17  2  0  0  0  0
 16 18  1  0  0  0  0
 18 31  1  0  0  0  0
M  END
>  <COMPND>
    mobley_2269032 

>  <AUTHOR>
    GENERATED BY OPEN BABEL 2.3.2

>  <MASTER>
        0    0    0    0    0    0    0    0   31    0   31    0

$$$$
