mobley_8723116.pdb
 OpenBabel09222014463D

 14 14  0  0  0  0  0  0  0  0999 V2000
    1.8850   -1.0360   -0.1120 C   0  0  0  0  0  0  0  0  0  0  0  0
    2.9210   -1.6310    0.6080 C   0  0  0  0  0  0  0  0  0  0  0  0
    2.8780   -1.6520    2.0020 C   0  0  0  0  0  0  0  0  0  0  0  0
    1.8000   -1.0790    2.6760 C   0  0  0  0  0  0  0  0  0  0  0  0
    0.7640   -0.4840    1.9550 C   0  0  0  0  0  0  0  0  0  0  0  0
    0.8070   -0.4630    0.5610 C   0  0  0  0  0  0  0  0  0  0  0  0
   -0.2400    0.1380   -0.1680 N   0  0  0  0  0  0  0  0  0  0  0  0
    4.1550   -2.3870    2.8910 Cl  0  0  0  0  0  0  0  0  0  0  0  0
    1.9290   -1.0260   -1.1980 H   0  0  0  0  0  0  0  0  0  0  0  0
    3.7550   -2.0750    0.0710 H   0  0  0  0  0  0  0  0  0  0  0  0
    1.7530   -1.0880    3.7620 H   0  0  0  0  0  0  0  0  0  0  0  0
   -0.0720   -0.0400    2.4900 H   0  0  0  0  0  0  0  0  0  0  0  0
   -1.0300    0.5040    0.3240 H   0  0  0  0  0  0  0  0  0  0  0  0
   -0.2210    0.1050   -1.1670 H   0  0  0  0  0  0  0  0  0  0  0  0
  1  6  2  0  0  0  0
  1  2  1  0  0  0  0
  1  9  1  0  0  0  0
  2  3  2  0  0  0  0
  2 10  1  0  0  0  0
  3  4  1  0  0  0  0
  3  8  1  0  0  0  0
  4  5  2  0  0  0  0
  4 11  1  0  0  0  0
  5  6  1  0  0  0  0
  5 12  1  0  0  0  0
  6  7  1  0  0  0  0
  7 13  1  0  0  0  0
  7 14  1  0  0  0  0
M  END
>  <COMPND>
    mobley_8723116 

>  <AUTHOR>
    GENERATED BY OPEN BABEL 2.3.2

>  <MASTER>
        0    0    0    0    0    0    0    0   14    0   14    0

$$$$
