mobley_627267.pdb
 OpenBabel09222014463D

 14 13  0  0  0  0  0  0  0  0999 V2000
    0.8030    1.1800   -0.4360 C   0  0  0  0  0  0  0  0  0  0  0  0
   -0.2690    0.1020   -0.2600 C   0  0  0  0  0  0  0  0  0  0  0  0
    0.3200   -1.2650   -0.6190 C   0  0  0  0  0  0  0  0  0  0  0  0
   -0.8020    0.1380    1.1720 C   0  0  0  0  0  0  0  0  0  0  0  0
   -1.5930    1.8710    1.5880 Br  0  0  0  0  0  0  0  0  0  0  0  0
    0.4050    2.1690   -0.1860 H   0  0  0  0  0  0  0  0  0  0  0  0
    1.6580    0.9900    0.2210 H   0  0  0  0  0  0  0  0  0  0  0  0
    1.1690    1.2130   -1.4690 H   0  0  0  0  0  0  0  0  0  0  0  0
   -1.0820    0.3200   -0.9640 H   0  0  0  0  0  0  0  0  0  0  0  0
   -0.4230   -2.0610   -0.5020 H   0  0  0  0  0  0  0  0  0  0  0  0
    0.6840   -1.2890   -1.6500 H   0  0  0  0  0  0  0  0  0  0  0  0
    1.1700   -1.5020    0.0320 H   0  0  0  0  0  0  0  0  0  0  0  0
   -1.5740   -0.6160    1.3510 H   0  0  0  0  0  0  0  0  0  0  0  0
    0.0000    0.0090    1.9040 H   0  0  0  0  0  0  0  0  0  0  0  0
  1  2  1  0  0  0  0
  1  6  1  0  0  0  0
  1  7  1  0  0  0  0
  1  8  1  0  0  0  0
  2  3  1  0  0  0  0
  2  4  1  0  0  0  0
  2  9  1  0  0  0  0
  3 10  1  0  0  0  0
  3 11  1  0  0  0  0
  3 12  1  0  0  0  0
  4  5  1  0  0  0  0
  4 13  1  0  0  0  0
  4 14  1  0  0  0  0
M  END
>  <COMPND>
    mobley_627267 

>  <AUTHOR>
    GENERATED BY OPEN BABEL 2.3.2

>  <MASTER>
        0    0    0    0    0    0    0    0   14    0   14    0

$$$$
