mobley_5123639.pdb
 OpenBabel09222014463D

 21 20  0  0  1  0  0  0  0  0999 V2000
    1.5230   -0.0310   -2.8940 C   0  0  0  0  0  0  0  0  0  0  0  0
    1.1130    1.2950   -2.2680 C   0  0  2  0  0  0  0  0  0  0  0  0
    1.4500    1.3370   -1.2270 H   0  0  0  0  0  0  0  0  0  0  0  0
   -0.3930    1.5690   -2.3520 C   0  0  0  0  0  0  0  0  0  0  0  0
   -1.3050    0.5380   -1.6610 C   0  0  0  0  0  0  0  0  0  0  0  0
   -1.0220    0.4220   -0.1630 C   0  0  0  0  0  0  0  0  0  0  0  0
   -2.7720    0.9160   -1.8830 C   0  0  0  0  0  0  0  0  0  0  0  0
    1.7780    2.3500   -2.9650 O   0  0  0  0  0  0  0  0  0  0  0  0
    1.1930   -0.0900   -3.9370 H   0  0  0  0  0  0  0  0  0  0  0  0
    2.6140   -0.1280   -2.9050 H   0  0  0  0  0  0  0  0  0  0  0  0
    1.1130   -0.8840   -2.3460 H   0  0  0  0  0  0  0  0  0  0  0  0
   -0.5860    2.5670   -1.9350 H   0  0  0  0  0  0  0  0  0  0  0  0
   -0.6760    1.6480   -3.4110 H   0  0  0  0  0  0  0  0  0  0  0  0
   -1.1480   -0.4460   -2.1190 H   0  0  0  0  0  0  0  0  0  0  0  0
   -1.6800   -0.3150    0.3090 H   0  0  0  0  0  0  0  0  0  0  0  0
   -1.1640    1.3820    0.3440 H   0  0  0  0  0  0  0  0  0  0  0  0
    0.0130    0.1130    0.0140 H   0  0  0  0  0  0  0  0  0  0  0  0
   -3.4370    0.1940   -1.3980 H   0  0  0  0  0  0  0  0  0  0  0  0
   -2.9880    1.9030   -1.4600 H   0  0  0  0  0  0  0  0  0  0  0  0
   -3.0190    0.9430   -2.9500 H   0  0  0  0  0  0  0  0  0  0  0  0
    2.7280    2.1880   -2.8630 H   0  0  0  0  0  0  0  0  0  0  0  0
  1  2  1  0  0  0  0
  1  9  1  0  0  0  0
  1 10  1  0  0  0  0
  1 11  1  0  0  0  0
  2  3  1  1  0  0  0
  2  4  1  0  0  0  0
  2  8  1  0  0  0  0
  4  5  1  0  0  0  0
  4 12  1  0  0  0  0
  4 13  1  0  0  0  0
  5  6  1  0  0  0  0
  5  7  1  0  0  0  0
  5 14  1  0  0  0  0
  6 15  1  0  0  0  0
  6 16  1  0  0  0  0
  6 17  1  0  0  0  0
  7 18  1  0  0  0  0
  7 19  1  0  0  0  0
  7 20  1  0  0  0  0
  8 21  1  0  0  0  0
M  END
>  <COMPND>
    mobley_5123639 

>  <AUTHOR>
    GENERATED BY OPEN BABEL 2.3.2

>  <MASTER>
        0    0    0    0    0    0    0    0   21    0   21    0

$$$$
