mobley_3843583.pdb
 OpenBabel09222014463D

 20 21  0  0  0  0  0  0  0  0999 V2000
   -0.4970   -2.0340    0.4940 C   0  0  0  0  0  0  0  0  0  0  0  0
    0.3500   -1.0280    0.0390 C   0  0  0  0  0  0  0  0  0  0  0  0
    1.6480   -1.3370   -0.3660 C   0  0  0  0  0  0  0  0  0  0  0  0
    2.1170   -2.6600   -0.3220 C   0  0  0  0  0  0  0  0  0  0  0  0
    1.2560   -3.6840    0.1400 C   0  0  0  0  0  0  0  0  0  0  0  0
   -0.0480   -3.3540    0.5450 C   0  0  0  0  0  0  0  0  0  0  0  0
    1.7240   -5.0070    0.1850 C   0  0  0  0  0  0  0  0  0  0  0  0
    3.0230   -5.3170   -0.2210 C   0  0  0  0  0  0  0  0  0  0  0  0
    3.8690   -4.3100   -0.6760 C   0  0  0  0  0  0  0  0  0  0  0  0
    3.4210   -2.9900   -0.7270 C   0  0  0  0  0  0  0  0  0  0  0  0
    4.3230   -2.0050   -1.1970 N   0  0  0  0  0  0  0  0  0  0  0  0
   -1.5070   -1.7920    0.8100 H   0  0  0  0  0  0  0  0  0  0  0  0
    0.0000    0.0000    0.0000 H   0  0  0  0  0  0  0  0  0  0  0  0
    2.2780   -0.5220   -0.7150 H   0  0  0  0  0  0  0  0  0  0  0  0
   -0.7270   -4.1250    0.9030 H   0  0  0  0  0  0  0  0  0  0  0  0
    1.0810   -5.8100    0.5370 H   0  0  0  0  0  0  0  0  0  0  0  0
    3.3730   -6.3440   -0.1830 H   0  0  0  0  0  0  0  0  0  0  0  0
    4.8790   -4.5650   -0.9890 H   0  0  0  0  0  0  0  0  0  0  0  0
    4.0060   -1.0630   -1.2850 H   0  0  0  0  0  0  0  0  0  0  0  0
    5.2230   -2.2900   -1.5180 H   0  0  0  0  0  0  0  0  0  0  0  0
  1  6  2  0  0  0  0
  1  2  1  0  0  0  0
  1 12  1  0  0  0  0
  2  3  2  0  0  0  0
  2 13  1  0  0  0  0
  3  4  1  0  0  0  0
  3 14  1  0  0  0  0
  4 10  2  0  0  0  0
  4  5  1  0  0  0  0
  5  6  1  0  0  0  0
  5  7  2  0  0  0  0
  6 15  1  0  0  0  0
  7  8  1  0  0  0  0
  7 16  1  0  0  0  0
  8  9  2  0  0  0  0
  8 17  1  0  0  0  0
  9 10  1  0  0  0  0
  9 18  1  0  0  0  0
 10 11  1  0  0  0  0
 11 19  1  0  0  0  0
 11 20  1  0  0  0  0
M  END
>  <COMPND>
    mobley_3843583 

>  <AUTHOR>
    GENERATED BY OPEN BABEL 2.3.2

>  <MASTER>
        0    0    0    0    0    0    0    0   20    0   20    0

$$$$
