mobley_9626434.pdb
 OpenBabel09222014463D

 16 15  0  0  0  0  0  0  0  0999 V2000
   -2.0380    0.0800    3.9170 C   0  0  0  0  0  0  0  0  0  0  0  0
   -2.1480    0.3170    2.4250 C   0  0  0  0  0  0  0  0  0  0  0  0
   -0.8530    0.2360    1.8470 O   0  0  0  0  0  0  0  0  0  0  0  0
   -0.8940    0.4510    0.4420 C   0  0  0  0  0  0  0  0  0  0  0  0
    0.5140    0.3530   -0.1150 C   0  0  0  0  0  0  0  0  0  0  0  0
    1.3270    1.3430    0.5020 O   0  0  0  0  0  0  0  0  0  0  0  0
   -3.0210    0.1360    4.3940 H   0  0  0  0  0  0  0  0  0  0  0  0
   -1.6010   -0.9020    4.1210 H   0  0  0  0  0  0  0  0  0  0  0  0
   -1.3800    0.8240    4.3770 H   0  0  0  0  0  0  0  0  0  0  0  0
   -2.5640    1.3080    2.2230 H   0  0  0  0  0  0  0  0  0  0  0  0
   -2.7880   -0.4410    1.9630 H   0  0  0  0  0  0  0  0  0  0  0  0
   -1.5460   -0.3090    0.0000 H   0  0  0  0  0  0  0  0  0  0  0  0
   -1.3090    1.4460    0.2590 H   0  0  0  0  0  0  0  0  0  0  0  0
    0.5240    0.5280   -1.1960 H   0  0  0  0  0  0  0  0  0  0  0  0
    0.9440   -0.6290    0.1030 H   0  0  0  0  0  0  0  0  0  0  0  0
    2.2150    1.2510    0.1230 H   0  0  0  0  0  0  0  0  0  0  0  0
  1  2  1  0  0  0  0
  1  7  1  0  0  0  0
  1  8  1  0  0  0  0
  1  9  1  0  0  0  0
  2  3  1  0  0  0  0
  2 10  1  0  0  0  0
  2 11  1  0  0  0  0
  3  4  1  0  0  0  0
  4  5  1  0  0  0  0
  4 12  1  0  0  0  0
  4 13  1  0  0  0  0
  5  6  1  0  0  0  0
  5 14  1  0  0  0  0
  5 15  1  0  0  0  0
  6 16  1  0  0  0  0
M  END
>  <COMPND>
    mobley_9626434 

>  <AUTHOR>
    GENERATED BY OPEN BABEL 2.3.2

>  <MASTER>
        0    0    0    0    0    0    0    0   16    0   16    0

$$$$
