mobley_9029594.pdb
 OpenBabel09222014463D

  5  4  0  0  0  0  0  0  0  0999 V2000
   -0.0530    0.0090   -0.0280 C   0  0  0  0  0  0  0  0  0  0  0  0
    1.1320   -0.1960    0.6000 F   0  0  0  0  0  0  0  0  0  0  0  0
   -0.6090    0.7780    0.5130 H   0  0  0  0  0  0  0  0  0  0  0  0
    0.1440    0.3370   -1.0510 H   0  0  0  0  0  0  0  0  0  0  0  0
   -0.6140   -0.9270   -0.0350 H   0  0  0  0  0  0  0  0  0  0  0  0
  1  2  1  0  0  0  0
  1  3  1  0  0  0  0
  1  4  1  0  0  0  0
  1  5  1  0  0  0  0
M  END
>  <COMPND>
    mobley_9029594 

>  <AUTHOR>
    GENERATED BY OPEN BABEL 2.3.2

>  <MASTER>
        0    0    0    0    0    0    0    0    5    0    5    0

$$$$
