mobley_4699732.pdb
 OpenBabel09222014463D

 11 10  0  0  1  0  0  0  0  0999 V2000
    0.8720   -0.5290    0.4010 C   0  0  0  0  0  0  0  0  0  0  0  0
    1.2560    0.0260    1.7670 C   0  0  1  0  0  0  0  0  0  0  0  0
    1.3860    1.1100    1.6750 H   0  0  0  0  0  0  0  0  0  0  0  0
    0.2160   -0.2400    2.8570 C   0  0  0  0  0  0  0  0  0  0  0  0
   -0.0990   -1.9710    3.1380 Cl  0  0  0  0  0  0  0  0  0  0  0  0
    2.8550   -0.6170    2.2520 Cl  0  0  0  0  0  0  0  0  0  0  0  0
    0.7260   -1.6140    0.4190 H   0  0  0  0  0  0  0  0  0  0  0  0
   -0.0610   -0.0760    0.0480 H   0  0  0  0  0  0  0  0  0  0  0  0
    1.6480   -0.3040   -0.3390 H   0  0  0  0  0  0  0  0  0  0  0  0
    0.5510    0.1830    3.8090 H   0  0  0  0  0  0  0  0  0  0  0  0
   -0.7400    0.2290    2.6040 H   0  0  0  0  0  0  0  0  0  0  0  0
  1  2  1  0  0  0  0
  1  7  1  0  0  0  0
  1  8  1  0  0  0  0
  1  9  1  0  0  0  0
  2  3  1  6  0  0  0
  2  4  1  0  0  0  0
  2  6  1  0  0  0  0
  4  5  1  0  0  0  0
  4 10  1  0  0  0  0
  4 11  1  0  0  0  0
M  END
>  <COMPND>
    mobley_4699732 

>  <AUTHOR>
    GENERATED BY OPEN BABEL 2.3.2

>  <MASTER>
        0    0    0    0    0    0    0    0   11    0   11    0

$$$$
