mobley_8916409.pdb
 OpenBabel09222014463D

 38 37  0  0  1  0  0  0  0  0999 V2000
   -2.5180   -5.5060   -1.2600 C   0  0  0  0  0  0  0  0  0  0  0  0
   -3.2090   -4.3500   -0.5680 C   0  0  0  0  0  0  0  0  0  0  0  0
   -3.2470   -3.2300   -1.4580 O   0  0  0  0  0  0  0  0  0  0  0  0
   -3.8470   -2.1060   -0.9640 C   0  0  0  0  0  0  0  0  0  0  0  0
   -4.3400   -1.9880    0.1490 O   0  0  0  0  0  0  0  0  0  0  0  0
   -3.7770   -1.0120   -2.0100 C   0  0  0  0  0  0  0  0  0  0  0  0
   -4.4780   -1.3790   -3.3210 C   0  0  2  0  0  0  0  0  0  0  0  0
   -4.0360   -2.2710   -3.7790 H   0  0  0  0  0  0  0  0  0  0  0  0
   -4.3600   -0.2320   -4.3070 C   0  0  0  0  0  0  0  0  0  0  0  0
   -5.1530    0.6930   -4.4250 O   0  0  0  0  0  0  0  0  0  0  0  0
   -3.2390   -0.4160   -5.0700 O   0  0  0  0  0  0  0  0  0  0  0  0
   -3.0080    0.5730   -6.0780 C   0  0  0  0  0  0  0  0  0  0  0  0
   -1.7410    0.2180   -6.8200 C   0  0  0  0  0  0  0  0  0  0  0  0
   -6.2440   -1.7600   -3.0510 S   0  0  0  0  0  0  0  0  0  0  0  0
   -6.8220   -2.8860   -4.7550 P   0  0  0  0  0  0  0  0  0  0  0  0
   -8.6800   -3.5060   -4.8630 S   0  0  0  0  0  0  0  0  0  0  0  0
   -6.3760   -2.0310   -6.0750 O   0  0  0  0  0  0  0  0  0  0  0  0
   -6.2350   -2.6740   -7.3310 C   0  0  0  0  0  0  0  0  0  0  0  0
   -5.7550   -4.1150   -4.9100 O   0  0  0  0  0  0  0  0  0  0  0  0
   -5.6020   -5.0670   -3.8700 C   0  0  0  0  0  0  0  0  0  0  0  0
   -2.4710   -6.3800   -0.6050 H   0  0  0  0  0  0  0  0  0  0  0  0
   -3.0470   -5.7790   -2.1780 H   0  0  0  0  0  0  0  0  0  0  0  0
   -1.4990   -5.2280   -1.5500 H   0  0  0  0  0  0  0  0  0  0  0  0
   -2.6650   -4.0630    0.3360 H   0  0  0  0  0  0  0  0  0  0  0  0
   -4.2340   -4.6210   -0.2990 H   0  0  0  0  0  0  0  0  0  0  0  0
   -2.7270   -0.7560   -2.1950 H   0  0  0  0  0  0  0  0  0  0  0  0
   -4.2550   -0.1300   -1.5660 H   0  0  0  0  0  0  0  0  0  0  0  0
   -3.8660    0.5810   -6.7510 H   0  0  0  0  0  0  0  0  0  0  0  0
   -2.9170    1.5430   -5.5890 H   0  0  0  0  0  0  0  0  0  0  0  0
   -1.5350    0.9570   -7.6000 H   0  0  0  0  0  0  0  0  0  0  0  0
   -0.8870    0.1790   -6.1360 H   0  0  0  0  0  0  0  0  0  0  0  0
   -1.8250   -0.7700   -7.2820 H   0  0  0  0  0  0  0  0  0  0  0  0
   -5.9330   -1.9410   -8.0820 H   0  0  0  0  0  0  0  0  0  0  0  0
   -7.1850   -3.1330   -7.6130 H   0  0  0  0  0  0  0  0  0  0  0  0
   -5.4680   -3.4470   -7.2480 H   0  0  0  0  0  0  0  0  0  0  0  0
   -4.8490   -5.8030   -4.1610 H   0  0  0  0  0  0  0  0  0  0  0  0
   -6.5590   -5.5600   -3.6860 H   0  0  0  0  0  0  0  0  0  0  0  0
   -5.2770   -4.5520   -2.9650 H   0  0  0  0  0  0  0  0  0  0  0  0
  1  2  1  0  0  0  0
  1 21  1  0  0  0  0
  1 22  1  0  0  0  0
  1 23  1  0  0  0  0
  2  3  1  0  0  0  0
  2 24  1  0  0  0  0
  2 25  1  0  0  0  0
  3  4  1  0  0  0  0
  4  5  2  0  0  0  0
  4  6  1  0  0  0  0
  6  7  1  0  0  0  0
  6 26  1  0  0  0  0
  6 27  1  0  0  0  0
  7  8  1  6  0  0  0
  7  9  1  0  0  0  0
  7 14  1  0  0  0  0
  9 10  2  0  0  0  0
  9 11  1  0  0  0  0
 11 12  1  0  0  0  0
 12 13  1  0  0  0  0
 12 28  1  0  0  0  0
 12 29  1  0  0  0  0
 13 30  1  0  0  0  0
 13 31  1  0  0  0  0
 13 32  1  0  0  0  0
 14 15  1  0  0  0  0
 15 16  1  0  0  0  0
 15 17  1  0  0  0  0
 15 19  1  0  0  0  0
 17 18  1  0  0  0  0
 18 33  1  0  0  0  0
 18 34  1  0  0  0  0
 18 35  1  0  0  0  0
 19 20  1  0  0  0  0
 20 36  1  0  0  0  0
 20 37  1  0  0  0  0
 20 38  1  0  0  0  0
M  END
>  <COMPND>
    mobley_8916409 

>  <AUTHOR>
    GENERATED BY OPEN BABEL 2.3.2

>  <MASTER>
        0    0    0    0    0    0    0    0   38    0   38    0

$$$$
