mobley_9007496.pdb
 OpenBabel09222014463D

 26 27  0  0  0  0  0  0  0  0999 V2000
   -3.4590   -6.6150   -0.2280 C   0  0  0  0  0  0  0  0  0  0  0  0
   -2.5250   -5.8300    0.5440 N   0  0  0  0  0  0  0  0  0  0  0  0
   -1.6850   -4.8840   -0.0080 C   0  0  0  0  0  0  0  0  0  0  0  0
   -1.6240   -4.5900   -1.1980 O   0  0  0  0  0  0  0  0  0  0  0  0
   -0.9140   -4.3080    0.9990 O   0  0  0  0  0  0  0  0  0  0  0  0
   -0.0480   -3.3540    0.5450 C   0  0  0  0  0  0  0  0  0  0  0  0
   -0.4970   -2.0340    0.4940 C   0  0  0  0  0  0  0  0  0  0  0  0
    0.3500   -1.0280    0.0390 C   0  0  0  0  0  0  0  0  0  0  0  0
    1.6480   -1.3370   -0.3660 C   0  0  0  0  0  0  0  0  0  0  0  0
    2.1170   -2.6600   -0.3220 C   0  0  0  0  0  0  0  0  0  0  0  0
    1.2560   -3.6840    0.1400 C   0  0  0  0  0  0  0  0  0  0  0  0
    1.7240   -5.0070    0.1850 C   0  0  0  0  0  0  0  0  0  0  0  0
    3.0230   -5.3170   -0.2210 C   0  0  0  0  0  0  0  0  0  0  0  0
    3.8690   -4.3100   -0.6760 C   0  0  0  0  0  0  0  0  0  0  0  0
    3.4210   -2.9900   -0.7270 C   0  0  0  0  0  0  0  0  0  0  0  0
   -2.9840   -7.5390   -0.5680 H   0  0  0  0  0  0  0  0  0  0  0  0
   -3.7960   -6.0510   -1.1020 H   0  0  0  0  0  0  0  0  0  0  0  0
   -4.3310   -6.8710    0.3800 H   0  0  0  0  0  0  0  0  0  0  0  0
   -2.4980   -5.9670    1.5490 H   0  0  0  0  0  0  0  0  0  0  0  0
   -1.5060   -1.7850    0.8080 H   0  0  0  0  0  0  0  0  0  0  0  0
    0.0000    0.0000    0.0000 H   0  0  0  0  0  0  0  0  0  0  0  0
    2.2930   -0.5340   -0.7190 H   0  0  0  0  0  0  0  0  0  0  0  0
    1.0890   -5.8180    0.5340 H   0  0  0  0  0  0  0  0  0  0  0  0
    3.3730   -6.3440   -0.1820 H   0  0  0  0  0  0  0  0  0  0  0  0
    4.8800   -4.5520   -0.9920 H   0  0  0  0  0  0  0  0  0  0  0  0
    4.0990   -2.2190   -1.0860 H   0  0  0  0  0  0  0  0  0  0  0  0
  1  2  1  0  0  0  0
  1 16  1  0  0  0  0
  1 17  1  0  0  0  0
  1 18  1  0  0  0  0
  2  3  1  0  0  0  0
  2 19  1  0  0  0  0
  3  4  2  0  0  0  0
  3  5  1  0  0  0  0
  5  6  1  0  0  0  0
  6 11  2  0  0  0  0
  6  7  1  0  0  0  0
  7  8  2  0  0  0  0
  7 20  1  0  0  0  0
  8  9  1  0  0  0  0
  8 21  1  0  0  0  0
  9 10  2  0  0  0  0
  9 22  1  0  0  0  0
 10 15  1  0  0  0  0
 10 11  1  0  0  0  0
 11 12  1  0  0  0  0
 12 13  2  0  0  0  0
 12 23  1  0  0  0  0
 13 14  1  0  0  0  0
 13 24  1  0  0  0  0
 14 15  2  0  0  0  0
 14 25  1  0  0  0  0
 15 26  1  0  0  0  0
M  END
>  <COMPND>
    mobley_9007496 

>  <AUTHOR>
    GENERATED BY OPEN BABEL 2.3.2

>  <MASTER>
        0    0    0    0    0    0    0    0   26    0   26    0

$$$$
