mobley_3034976.pdb
 OpenBabel09222014463D

  8  7  0  0  0  0  0  0  0  0999 V2000
   -1.0280    0.3450   -0.1340 C   0  0  0  0  0  0  0  0  0  0  0  0
   -1.6530    0.6110    1.1990 C   0  0  0  0  0  0  0  0  0  0  0  0
   -2.6520    0.0530    1.6300 O   0  0  0  0  0  0  0  0  0  0  0  0
   -0.9600    1.5620    1.8710 O   0  0  0  0  0  0  0  0  0  0  0  0
   -1.4620    1.0090   -0.8860 H   0  0  0  0  0  0  0  0  0  0  0  0
    0.0530    0.4880   -0.0720 H   0  0  0  0  0  0  0  0  0  0  0  0
   -1.2260   -0.6910   -0.4260 H   0  0  0  0  0  0  0  0  0  0  0  0
   -0.1900    1.8860    1.3580 H   0  0  0  0  0  0  0  0  0  0  0  0
  1  2  1  0  0  0  0
  1  5  1  0  0  0  0
  1  6  1  0  0  0  0
  1  7  1  0  0  0  0
  2  3  2  0  0  0  0
  2  4  1  0  0  0  0
  4  8  1  0  0  0  0
M  END
>  <COMPND>
    mobley_3034976 

>  <AUTHOR>
    GENERATED BY OPEN BABEL 2.3.2

>  <MASTER>
        0    0    0    0    0    0    0    0    8    0    8    0

$$$$
