mobley_2310185.pdb
 OpenBabel09222014463D

  9  8  0  0  0  0  0  0  0  0999 V2000
    1.0620   -0.2680   -0.0010 C   0  0  0  0  0  0  0  0  0  0  0  0
    1.9100    0.9130   -0.4220 C   0  0  0  0  0  0  0  0  0  0  0  0
    1.5170    1.3240   -1.7230 O   0  0  0  0  0  0  0  0  0  0  0  0
    1.3390   -0.6110    1.0000 H   0  0  0  0  0  0  0  0  0  0  0  0
    0.0000    0.0000   -0.0010 H   0  0  0  0  0  0  0  0  0  0  0  0
    1.1800   -1.0990   -0.7040 H   0  0  0  0  0  0  0  0  0  0  0  0
    2.9680    0.6360   -0.4450 H   0  0  0  0  0  0  0  0  0  0  0  0
    1.7730    1.7500    0.2690 H   0  0  0  0  0  0  0  0  0  0  0  0
    2.0790    2.0790   -1.9610 H   0  0  0  0  0  0  0  0  0  0  0  0
  1  2  1  0  0  0  0
  1  4  1  0  0  0  0
  1  5  1  0  0  0  0
  1  6  1  0  0  0  0
  2  3  1  0  0  0  0
  2  7  1  0  0  0  0
  2  8  1  0  0  0  0
  3  9  1  0  0  0  0
M  END
>  <COMPND>
    mobley_2310185 

>  <AUTHOR>
    GENERATED BY OPEN BABEL 2.3.2

>  <MASTER>
        0    0    0    0    0    0    0    0    9    0    9    0

$$$$
