mobley_9821936.pdb
 OpenBabel09222014463D

 22 24  0  0  0  0  0  0  0  0999 V2000
   -2.7270   -1.9050    0.6890 C   0  0  0  0  0  0  0  0  0  0  0  0
   -3.5800   -0.9100    1.1630 C   0  0  0  0  0  0  0  0  0  0  0  0
   -3.1490    0.4150    1.2200 C   0  0  0  0  0  0  0  0  0  0  0  0
   -1.8580    0.7400    0.8000 C   0  0  0  0  0  0  0  0  0  0  0  0
   -1.0040   -0.2570    0.3260 C   0  0  0  0  0  0  0  0  0  0  0  0
   -1.4370   -1.5820    0.2690 C   0  0  0  0  0  0  0  0  0  0  0  0
   -0.4030   -2.8500   -0.3160 Cl  0  0  0  0  0  0  0  0  0  0  0  0
    0.6080    0.1470   -0.1990 Cl  0  0  0  0  0  0  0  0  0  0  0  0
   -1.3190    2.3950    0.8710 Cl  0  0  0  0  0  0  0  0  0  0  0  0
   -4.2410    1.6280    1.8160 Cl  0  0  0  0  0  0  0  0  0  0  0  0
   -4.8560   -1.1830    1.5850 O   0  0  0  0  0  0  0  0  0  0  0  0
   -5.2390   -2.4980    1.5120 C   0  0  0  0  0  0  0  0  0  0  0  0
   -4.3860   -3.4940    1.0380 C   0  0  0  0  0  0  0  0  0  0  0  0
   -4.8170   -4.8180    0.9820 C   0  0  0  0  0  0  0  0  0  0  0  0
   -6.1070   -5.1430    1.4010 C   0  0  0  0  0  0  0  0  0  0  0  0
   -6.9620   -4.1460    1.8750 C   0  0  0  0  0  0  0  0  0  0  0  0
   -6.5290   -2.8210    1.9320 C   0  0  0  0  0  0  0  0  0  0  0  0
   -7.5640   -1.5530    2.5160 Cl  0  0  0  0  0  0  0  0  0  0  0  0
   -8.5730   -4.5510    2.4000 Cl  0  0  0  0  0  0  0  0  0  0  0  0
   -6.6460   -6.7990    1.3300 Cl  0  0  0  0  0  0  0  0  0  0  0  0
   -3.7240   -6.0320    0.3850 Cl  0  0  0  0  0  0  0  0  0  0  0  0
   -3.1090   -3.2200    0.6160 O   0  0  0  0  0  0  0  0  0  0  0  0
  1  6  2  0  0  0  0
  1 22  1  0  0  0  0
  1  2  1  0  0  0  0
  2  3  2  0  0  0  0
  2 11  1  0  0  0  0
  3  4  1  0  0  0  0
  3 10  1  0  0  0  0
  4  5  2  0  0  0  0
  4  9  1  0  0  0  0
  5  6  1  0  0  0  0
  5  8  1  0  0  0  0
  6  7  1  0  0  0  0
 11 12  1  0  0  0  0
 12 17  2  0  0  0  0
 12 13  1  0  0  0  0
 13 14  2  0  0  0  0
 13 22  1  0  0  0  0
 14 15  1  0  0  0  0
 14 21  1  0  0  0  0
 15 16  2  0  0  0  0
 15 20  1  0  0  0  0
 16 17  1  0  0  0  0
 16 19  1  0  0  0  0
 17 18  1  0  0  0  0
M  END
>  <COMPND>
    mobley_9821936 

>  <AUTHOR>
    GENERATED BY OPEN BABEL 2.3.2

>  <MASTER>
        0    0    0    0    0    0    0    0   22    0   22    0

$$$$
