mobley_4434915.pdb
 OpenBabel09222014463D

  5  4  0  0  0  0  0  0  0  0999 V2000
   -0.1150   -0.0080   -0.0770 C   0  0  0  0  0  0  0  0  0  0  0  0
    1.3490    0.0980    0.9060 Cl  0  0  0  0  0  0  0  0  0  0  0  0
   -0.9600    0.3810    0.4960 H   0  0  0  0  0  0  0  0  0  0  0  0
    0.0210    0.5830   -0.9860 H   0  0  0  0  0  0  0  0  0  0  0  0
   -0.2950   -1.0540   -0.3380 H   0  0  0  0  0  0  0  0  0  0  0  0
  1  2  1  0  0  0  0
  1  3  1  0  0  0  0
  1  4  1  0  0  0  0
  1  5  1  0  0  0  0
M  END
>  <COMPND>
    mobley_4434915 

>  <AUTHOR>
    GENERATED BY OPEN BABEL 2.3.2

>  <MASTER>
        0    0    0    0    0    0    0    0    5    0    5    0

$$$$
