mobley_6456034.pdb
 OpenBabel09222014463D

 26 25  0  0  0  0  0  0  0  0999 V2000
    1.9650   -1.5720   -5.6310 C   0  0  0  0  0  0  0  0  0  0  0  0
    3.1730   -1.1110   -4.8140 C   0  0  0  0  0  0  0  0  0  0  0  0
    4.1590   -0.3560   -5.7030 C   0  0  0  0  0  0  0  0  0  0  0  0
    2.7460   -0.2390   -3.6300 C   0  0  0  0  0  0  0  0  0  0  0  0
    1.8770   -0.9790   -2.7680 O   0  0  0  0  0  0  0  0  0  0  0  0
    1.4250   -0.3060   -1.6680 C   0  0  0  0  0  0  0  0  0  0  0  0
    1.7000    0.8500   -1.3740 O   0  0  0  0  0  0  0  0  0  0  0  0
    0.5290   -1.2190   -0.8490 C   0  0  0  0  0  0  0  0  0  0  0  0
    1.3670   -1.9780    0.1740 C   0  0  0  0  0  0  0  0  0  0  0  0
   -0.5770   -0.4200   -0.1640 C   0  0  0  0  0  0  0  0  0  0  0  0
    1.2530   -2.1140   -4.9990 H   0  0  0  0  0  0  0  0  0  0  0  0
    2.2680   -2.2380   -6.4460 H   0  0  0  0  0  0  0  0  0  0  0  0
    1.4350   -0.7190   -6.0690 H   0  0  0  0  0  0  0  0  0  0  0  0
    3.6680   -2.0100   -4.4240 H   0  0  0  0  0  0  0  0  0  0  0  0
    5.0280   -0.0230   -5.1260 H   0  0  0  0  0  0  0  0  0  0  0  0
    3.6880    0.5310   -6.1400 H   0  0  0  0  0  0  0  0  0  0  0  0
    4.5190   -0.9880   -6.5230 H   0  0  0  0  0  0  0  0  0  0  0  0
    3.6190    0.0710   -3.0460 H   0  0  0  0  0  0  0  0  0  0  0  0
    2.2180    0.6580   -3.9700 H   0  0  0  0  0  0  0  0  0  0  0  0
    0.0510   -1.9270   -1.5360 H   0  0  0  0  0  0  0  0  0  0  0  0
    0.7400   -2.6430    0.7760 H   0  0  0  0  0  0  0  0  0  0  0  0
    1.8860   -1.2910    0.8510 H   0  0  0  0  0  0  0  0  0  0  0  0
    2.1300   -2.5900   -0.3200 H   0  0  0  0  0  0  0  0  0  0  0  0
   -1.2220   -1.0780    0.4270 H   0  0  0  0  0  0  0  0  0  0  0  0
   -1.2020    0.0920   -0.9040 H   0  0  0  0  0  0  0  0  0  0  0  0
   -0.1650    0.3430    0.5060 H   0  0  0  0  0  0  0  0  0  0  0  0
  1  2  1  0  0  0  0
  1 11  1  0  0  0  0
  1 12  1  0  0  0  0
  1 13  1  0  0  0  0
  2  3  1  0  0  0  0
  2  4  1  0  0  0  0
  2 14  1  0  0  0  0
  3 15  1  0  0  0  0
  3 16  1  0  0  0  0
  3 17  1  0  0  0  0
  4  5  1  0  0  0  0
  4 18  1  0  0  0  0
  4 19  1  0  0  0  0
  5  6  1  0  0  0  0
  6  7  2  0  0  0  0
  6  8  1  0  0  0  0
  8  9  1  0  0  0  0
  8 10  1  0  0  0  0
  8 20  1  0  0  0  0
  9 21  1  0  0  0  0
  9 22  1  0  0  0  0
  9 23  1  0  0  0  0
 10 24  1  0  0  0  0
 10 25  1  0  0  0  0
 10 26  1  0  0  0  0
M  END
>  <COMPND>
    mobley_6456034 

>  <AUTHOR>
    GENERATED BY OPEN BABEL 2.3.2

>  <MASTER>
        0    0    0    0    0    0    0    0   26    0   26    0

$$$$
