mobley_8809190.pdb
 OpenBabel09222014463D

 24 24  0  0  0  0  0  0  0  0999 V2000
   -0.0240    1.0480    0.3160 C   0  0  0  0  0  0  0  0  0  0  0  0
   -0.5550    1.9380   -0.7960 C   0  0  0  0  0  0  0  0  0  0  0  0
    0.3240    1.8600   -2.0440 C   0  0  0  0  0  0  0  0  0  0  0  0
   -0.2150    2.7590   -3.1610 C   0  0  0  0  0  0  0  0  0  0  0  0
    0.6480    2.6860   -4.3950 C   0  0  0  0  0  0  0  0  0  0  0  0
    1.7160    3.5700   -4.5510 C   0  0  0  0  0  0  0  0  0  0  0  0
    2.5150    3.5030   -5.6930 C   0  0  0  0  0  0  0  0  0  0  0  0
    2.2450    2.5530   -6.6780 C   0  0  0  0  0  0  0  0  0  0  0  0
    1.1770    1.6690   -6.5220 C   0  0  0  0  0  0  0  0  0  0  0  0
    0.3790    1.7360   -5.3800 C   0  0  0  0  0  0  0  0  0  0  0  0
   -0.6590    1.1100    1.2050 H   0  0  0  0  0  0  0  0  0  0  0  0
    0.9930    1.3380    0.5990 H   0  0  0  0  0  0  0  0  0  0  0  0
    0.0000    0.0040   -0.0120 H   0  0  0  0  0  0  0  0  0  0  0  0
   -0.6010    2.9730   -0.4370 H   0  0  0  0  0  0  0  0  0  0  0  0
   -1.5790    1.6330   -1.0420 H   0  0  0  0  0  0  0  0  0  0  0  0
    1.3490    2.1580   -1.7890 H   0  0  0  0  0  0  0  0  0  0  0  0
    0.3750    0.8210   -2.3930 H   0  0  0  0  0  0  0  0  0  0  0  0
   -0.2720    3.7970   -2.8080 H   0  0  0  0  0  0  0  0  0  0  0  0
   -1.2440    2.4650   -3.4100 H   0  0  0  0  0  0  0  0  0  0  0  0
    1.9330    4.3130   -3.7890 H   0  0  0  0  0  0  0  0  0  0  0  0
    3.3460    4.1910   -5.8150 H   0  0  0  0  0  0  0  0  0  0  0  0
    2.8670    2.5010   -7.5670 H   0  0  0  0  0  0  0  0  0  0  0  0
    0.9670    0.9300   -7.2890 H   0  0  0  0  0  0  0  0  0  0  0  0
   -0.4510    1.0430   -5.2670 H   0  0  0  0  0  0  0  0  0  0  0  0
  1  2  1  0  0  0  0
  1 11  1  0  0  0  0
  1 12  1  0  0  0  0
  1 13  1  0  0  0  0
  2  3  1  0  0  0  0
  2 14  1  0  0  0  0
  2 15  1  0  0  0  0
  3  4  1  0  0  0  0
  3 16  1  0  0  0  0
  3 17  1  0  0  0  0
  4  5  1  0  0  0  0
  4 18  1  0  0  0  0
  4 19  1  0  0  0  0
  5 10  2  0  0  0  0
  5  6  1  0  0  0  0
  6  7  2  0  0  0  0
  6 20  1  0  0  0  0
  7  8  1  0  0  0  0
  7 21  1  0  0  0  0
  8  9  2  0  0  0  0
  8 22  1  0  0  0  0
  9 10  1  0  0  0  0
  9 23  1  0  0  0  0
 10 24  1  0  0  0  0
M  END
>  <COMPND>
    mobley_8809190 

>  <AUTHOR>
    GENERATED BY OPEN BABEL 2.3.2

>  <MASTER>
        0    0    0    0    0    0    0    0   24    0   24    0

$$$$
