mobley_3006808.pdb
 OpenBabel09222014463D

  9  8  0  0  0  0  0  0  0  0999 V2000
    0.7720   -0.3320    0.7000 C   0  0  0  0  0  0  0  0  0  0  0  0
    1.3430    0.8420    1.4540 C   0  0  0  0  0  0  0  0  0  0  0  0
    1.8880    1.7360    0.6000 F   0  0  0  0  0  0  0  0  0  0  0  0
    2.3080    0.4510    2.3120 F   0  0  0  0  0  0  0  0  0  0  0  0
    0.3870    1.4810    2.1610 F   0  0  0  0  0  0  0  0  0  0  0  0
    1.8120   -0.9630   -0.0310 O   0  0  0  0  0  0  0  0  0  0  0  0
    0.3380   -1.0580    1.3930 H   0  0  0  0  0  0  0  0  0  0  0  0
    0.0000    0.0000    0.0000 H   0  0  0  0  0  0  0  0  0  0  0  0
    1.4110   -1.7120   -0.5020 H   0  0  0  0  0  0  0  0  0  0  0  0
  1  2  1  0  0  0  0
  1  6  1  0  0  0  0
  1  7  1  0  0  0  0
  1  8  1  0  0  0  0
  2  3  1  0  0  0  0
  2  4  1  0  0  0  0
  2  5  1  0  0  0  0
  6  9  1  0  0  0  0
M  END
>  <COMPND>
    mobley_3006808 

>  <AUTHOR>
    GENERATED BY OPEN BABEL 2.3.2

>  <MASTER>
        0    0    0    0    0    0    0    0    9    0    9    0

$$$$
