mobley_6006813.pdb
 OpenBabel09222014463D

 16 15  0  0  0  0  0  0  0  0999 V2000
   -0.4740    0.9660   -0.2040 C   0  0  0  0  0  0  0  0  0  0  0  0
   -1.0730    1.5380    1.0710 C   0  0  0  0  0  0  0  0  0  0  0  0
   -1.7900    2.8640    0.8060 C   0  0  0  0  0  0  0  0  0  0  0  0
   -2.3980    3.4560    2.0690 C   0  0  0  0  0  0  0  0  0  0  0  0
   -3.0650    4.7170    1.7460 N   0  0  0  0  0  0  0  0  0  0  0  0
   -4.2690    4.6810    1.4210 O   0  5  0  0  0  0  0  0  0  0  0  0
   -2.3880    5.7650    1.7980 O   0  5  0  0  0  0  0  0  0  0  0  0
    0.0360    0.0180   -0.0070 H   0  0  0  0  0  0  0  0  0  0  0  0
   -1.2600    0.7800   -0.9430 H   0  0  0  0  0  0  0  0  0  0  0  0
    0.2480    1.6610   -0.6450 H   0  0  0  0  0  0  0  0  0  0  0  0
   -1.7780    0.8130    1.4940 H   0  0  0  0  0  0  0  0  0  0  0  0
   -0.2740    1.6810    1.8060 H   0  0  0  0  0  0  0  0  0  0  0  0
   -1.0850    3.5800    0.3650 H   0  0  0  0  0  0  0  0  0  0  0  0
   -2.5890    2.7020    0.0730 H   0  0  0  0  0  0  0  0  0  0  0  0
   -1.6380    3.6470    2.8330 H   0  0  0  0  0  0  0  0  0  0  0  0
   -3.1470    2.7770    2.4880 H   0  0  0  0  0  0  0  0  0  0  0  0
  1  2  1  0  0  0  0
  1  8  1  0  0  0  0
  1  9  1  0  0  0  0
  1 10  1  0  0  0  0
  2  3  1  0  0  0  0
  2 11  1  0  0  0  0
  2 12  1  0  0  0  0
  3  4  1  0  0  0  0
  3 13  1  0  0  0  0
  3 14  1  0  0  0  0
  4  5  1  0  0  0  0
  4 15  1  0  0  0  0
  4 16  1  0  0  0  0
  5  6  2  0  0  0  0
  5  7  2  0  0  0  0
M  CHG  2   6  -1   7  -1
M  END
>  <COMPND>
    mobley_6006813 

>  <AUTHOR>
    GENERATED BY OPEN BABEL 2.3.2

>  <MASTER>
        0    0    0    0    0    0    0    0   16    0   16    0

$$$$
