mobley_1792062.pdb
 OpenBabel09222014463D

  8  7  0  0  0  0  0  0  0  0999 V2000
   -0.3630    0.6420   -0.1610 C   0  0  0  0  0  0  0  0  0  0  0  0
    0.3630   -0.6410    0.1610 C   0  0  0  0  0  0  0  0  0  0  0  0
    0.4140   -0.8910    2.0900 Br  0  0  0  0  0  0  0  0  0  0  0  0
   -0.4140    0.8920   -2.0900 Br  0  0  0  0  0  0  0  0  0  0  0  0
    0.1390    1.5200    0.2550 H   0  0  0  0  0  0  0  0  0  0  0  0
   -1.4020    0.6290    0.1800 H   0  0  0  0  0  0  0  0  0  0  0  0
    1.4030   -0.6280   -0.1800 H   0  0  0  0  0  0  0  0  0  0  0  0
   -0.1380   -1.5200   -0.2550 H   0  0  0  0  0  0  0  0  0  0  0  0
  1  2  1  0  0  0  0
  1  4  1  0  0  0  0
  1  5  1  0  0  0  0
  1  6  1  0  0  0  0
  2  3  1  0  0  0  0
  2  7  1  0  0  0  0
  2  8  1  0  0  0  0
M  END
>  <COMPND>
    mobley_1792062 

>  <AUTHOR>
    GENERATED BY OPEN BABEL 2.3.2

>  <MASTER>
        0    0    0    0    0    0    0    0    8    0    8    0

$$$$
