mobley_2972906.pdb
 OpenBabel09222014463D

  9  9  0  0  0  0  0  0  0  0999 V2000
   -0.4680   -0.0880   -0.9720 C   0  0  0  0  0  0  0  0  0  0  0  0
   -0.2530    0.8090   -2.0580 C   0  0  0  0  0  0  0  0  0  0  0  0
   -0.9780    0.4540   -3.1740 C   0  0  0  0  0  0  0  0  0  0  0  0
   -1.9150   -0.9560   -2.9100 S   0  0  0  0  0  0  0  0  0  0  0  0
   -1.3500   -1.0950   -1.2990 C   0  0  0  0  0  0  0  0  0  0  0  0
    0.0000    0.0000    0.0000 H   0  0  0  0  0  0  0  0  0  0  0  0
    0.4010    1.6700   -2.0220 H   0  0  0  0  0  0  0  0  0  0  0  0
   -1.0030    0.9550   -4.1310 H   0  0  0  0  0  0  0  0  0  0  0  0
   -1.6900   -1.9050   -0.6690 H   0  0  0  0  0  0  0  0  0  0  0  0
  1  5  2  0  0  0  0
  1  2  1  0  0  0  0
  1  6  1  0  0  0  0
  2  3  2  0  0  0  0
  2  7  1  0  0  0  0
  3  4  1  0  0  0  0
  3  8  1  0  0  0  0
  4  5  1  0  0  0  0
  5  9  1  0  0  0  0
M  END
>  <COMPND>
    mobley_2972906 

>  <AUTHOR>
    GENERATED BY OPEN BABEL 2.3.2

>  <MASTER>
        0    0    0    0    0    0    0    0    9    0    9    0

$$$$
