mobley_8765203.pdb
 OpenBabel09222014463D

 13 12  0  0  0  0  0  0  0  0999 V2000
   -0.5220   -2.4670   -1.0270 C   0  0  0  0  0  0  0  0  0  0  0  0
   -0.6570   -2.6890    0.4540 C   0  0  0  0  0  0  0  0  0  0  0  0
   -0.9690   -3.9040    0.9360 C   0  0  0  0  0  0  0  0  0  0  0  0
   -0.4460   -1.5740    1.3660 C   0  0  0  0  0  0  0  0  0  0  0  0
   -0.1320   -0.3170    1.0280 C   0  0  0  0  0  0  0  0  0  0  0  0
   -1.4820   -2.1760   -1.4650 H   0  0  0  0  0  0  0  0  0  0  0  0
   -0.1890   -3.3710   -1.5490 H   0  0  0  0  0  0  0  0  0  0  0  0
    0.2150   -1.6830   -1.2360 H   0  0  0  0  0  0  0  0  0  0  0  0
   -1.0690   -4.0790    2.0020 H   0  0  0  0  0  0  0  0  0  0  0  0
   -1.1320   -4.7560    0.2830 H   0  0  0  0  0  0  0  0  0  0  0  0
   -0.5550   -1.7880    2.4280 H   0  0  0  0  0  0  0  0  0  0  0  0
    0.0010    0.4340    1.8000 H   0  0  0  0  0  0  0  0  0  0  0  0
    0.0000    0.0000    0.0000 H   0  0  0  0  0  0  0  0  0  0  0  0
  1  2  1  0  0  0  0
  1  6  1  0  0  0  0
  1  7  1  0  0  0  0
  1  8  1  0  0  0  0
  2  3  2  0  0  0  0
  2  4  1  0  0  0  0
  3  9  1  0  0  0  0
  3 10  1  0  0  0  0
  4  5  2  0  0  0  0
  4 11  1  0  0  0  0
  5 12  1  0  0  0  0
  5 13  1  0  0  0  0
M  END
>  <COMPND>
    mobley_8765203 

>  <AUTHOR>
    GENERATED BY OPEN BABEL 2.3.2

>  <MASTER>
        0    0    0    0    0    0    0    0   13    0   13    0

$$$$
