mobley_6632459.pdb
 OpenBabel09222014463D

 10  9  0  0  0  0  0  0  0  0999 V2000
    0.4290   -0.8130    0.5960 C   0  0  0  0  0  0  0  0  0  0  0  0
   -0.6600   -1.6800    1.1970 C   0  0  0  0  0  0  0  0  0  0  0  0
   -1.5420   -2.3180    0.1520 C   0  0  0  0  0  0  0  0  0  0  0  0
   -1.4120   -2.1670   -1.0580 O   0  0  0  0  0  0  0  0  0  0  0  0
    1.0520   -0.3640    1.3770 H   0  0  0  0  0  0  0  0  0  0  0  0
    0.0000    0.0010    0.0020 H   0  0  0  0  0  0  0  0  0  0  0  0
    1.0750   -1.4090   -0.0570 H   0  0  0  0  0  0  0  0  0  0  0  0
   -0.2140   -2.4830    1.7930 H   0  0  0  0  0  0  0  0  0  0  0  0
   -1.2990   -1.0800    1.8530 H   0  0  0  0  0  0  0  0  0  0  0  0
   -2.3470   -2.9580    0.5520 H   0  0  0  0  0  0  0  0  0  0  0  0
  1  2  1  0  0  0  0
  1  5  1  0  0  0  0
  1  6  1  0  0  0  0
  1  7  1  0  0  0  0
  2  3  1  0  0  0  0
  2  8  1  0  0  0  0
  2  9  1  0  0  0  0
  3  4  2  0  0  0  0
  3 10  1  0  0  0  0
M  END
>  <COMPND>
    mobley_6632459 

>  <AUTHOR>
    GENERATED BY OPEN BABEL 2.3.2

>  <MASTER>
        0    0    0    0    0    0    0    0   10    0   10    0

$$$$
