mobley_588781.pdb
 OpenBabel09222014463D

 30 30  0  0  0  0  0  0  0  0999 V2000
    0.5660   -0.3060   -0.8830 C   0  0  0  0  0  0  0  0  0  0  0  0
   -0.1250    0.1510   -2.1590 C   0  0  0  0  0  0  0  0  0  0  0  0
   -1.5240   -0.4520   -2.2840 C   0  0  0  0  0  0  0  0  0  0  0  0
   -2.2160    0.0100   -3.5680 C   0  0  0  0  0  0  0  0  0  0  0  0
   -3.6160   -0.5930   -3.6930 C   0  0  0  0  0  0  0  0  0  0  0  0
   -4.3060   -0.1300   -4.9780 C   0  0  0  0  0  0  0  0  0  0  0  0
   -5.6780   -0.7130   -5.1130 C   0  0  0  0  0  0  0  0  0  0  0  0
   -5.8560   -1.9330   -5.7650 C   0  0  0  0  0  0  0  0  0  0  0  0
   -7.1350   -2.4770   -5.8910 C   0  0  0  0  0  0  0  0  0  0  0  0
   -8.2350   -1.8000   -5.3640 C   0  0  0  0  0  0  0  0  0  0  0  0
   -8.0570   -0.5800   -4.7120 C   0  0  0  0  0  0  0  0  0  0  0  0
   -6.7790   -0.0370   -4.5860 C   0  0  0  0  0  0  0  0  0  0  0  0
    1.5640    0.1370   -0.8140 H   0  0  0  0  0  0  0  0  0  0  0  0
   -0.0030   -0.0010    0.0010 H   0  0  0  0  0  0  0  0  0  0  0  0
    0.6740   -1.3950   -0.8640 H   0  0  0  0  0  0  0  0  0  0  0  0
    0.4840   -0.1410   -3.0220 H   0  0  0  0  0  0  0  0  0  0  0  0
   -0.1890    1.2450   -2.1610 H   0  0  0  0  0  0  0  0  0  0  0  0
   -1.4550   -1.5460   -2.2770 H   0  0  0  0  0  0  0  0  0  0  0  0
   -2.1290   -0.1600   -1.4160 H   0  0  0  0  0  0  0  0  0  0  0  0
   -1.6120   -0.2810   -4.4360 H   0  0  0  0  0  0  0  0  0  0  0  0
   -2.2850    1.1050   -3.5740 H   0  0  0  0  0  0  0  0  0  0  0  0
   -4.2190   -0.3060   -2.8220 H   0  0  0  0  0  0  0  0  0  0  0  0
   -3.5460   -1.6880   -3.6810 H   0  0  0  0  0  0  0  0  0  0  0  0
   -4.3770    0.9650   -4.9950 H   0  0  0  0  0  0  0  0  0  0  0  0
   -3.7070   -0.4150   -5.8520 H   0  0  0  0  0  0  0  0  0  0  0  0
   -5.0050   -2.4670   -6.1790 H   0  0  0  0  0  0  0  0  0  0  0  0
   -7.2730   -3.4270   -6.3990 H   0  0  0  0  0  0  0  0  0  0  0  0
   -9.2310   -2.2240   -5.4620 H   0  0  0  0  0  0  0  0  0  0  0  0
   -8.9140   -0.0530   -4.3030 H   0  0  0  0  0  0  0  0  0  0  0  0
   -6.6500    0.9140   -4.0760 H   0  0  0  0  0  0  0  0  0  0  0  0
  1  2  1  0  0  0  0
  1 13  1  0  0  0  0
  1 14  1  0  0  0  0
  1 15  1  0  0  0  0
  2  3  1  0  0  0  0
  2 16  1  0  0  0  0
  2 17  1  0  0  0  0
  3  4  1  0  0  0  0
  3 18  1  0  0  0  0
  3 19  1  0  0  0  0
  4  5  1  0  0  0  0
  4 20  1  0  0  0  0
  4 21  1  0  0  0  0
  5  6  1  0  0  0  0
  5 22  1  0  0  0  0
  5 23  1  0  0  0  0
  6  7  1  0  0  0  0
  6 24  1  0  0  0  0
  6 25  1  0  0  0  0
  7 12  2  0  0  0  0
  7  8  1  0  0  0  0
  8  9  2  0  0  0  0
  8 26  1  0  0  0  0
  9 10  1  0  0  0  0
  9 27  1  0  0  0  0
 10 11  2  0  0  0  0
 10 28  1  0  0  0  0
 11 12  1  0  0  0  0
 11 29  1  0  0  0  0
 12 30  1  0  0  0  0
M  END
>  <COMPND>
    mobley_588781 

>  <AUTHOR>
    GENERATED BY OPEN BABEL 2.3.2

>  <MASTER>
        0    0    0    0    0    0    0    0   30    0   30    0

$$$$
