mobley_3589456.pdb
 OpenBabel09222014463D

 20 19  0  0  0  0  0  0  0  0999 V2000
    0.3040   -0.2570    2.3760 C   0  0  0  0  0  0  0  0  0  0  0  0
   -0.3450   -0.8630    1.2640 O   0  0  0  0  0  0  0  0  0  0  0  0
    0.0330   -0.2960   -0.0120 C   0  0  0  0  0  0  0  0  0  0  0  0
   -0.7700   -1.0800   -1.0730 C   0  0  0  0  0  0  0  0  0  0  0  0
   -0.4010   -2.8280   -1.0460 Cl  0  0  0  0  0  0  0  0  0  0  0  0
    1.4480   -0.4950   -0.2270 O   0  0  0  0  0  0  0  0  0  0  0  0
    1.9600    0.0160   -1.4510 C   0  0  0  0  0  0  0  0  0  0  0  0
   -0.2810    1.1110   -0.0720 O   0  0  0  0  0  0  0  0  0  0  0  0
   -1.6510    1.4500    0.0920 C   0  0  0  0  0  0  0  0  0  0  0  0
   -0.0300   -0.7360    3.2990 H   0  0  0  0  0  0  0  0  0  0  0  0
    0.0680    0.8100    2.3990 H   0  0  0  0  0  0  0  0  0  0  0  0
    1.3840   -0.3870    2.2710 H   0  0  0  0  0  0  0  0  0  0  0  0
   -0.5720   -0.7150   -2.0850 H   0  0  0  0  0  0  0  0  0  0  0  0
   -1.8470   -0.9980   -0.8960 H   0  0  0  0  0  0  0  0  0  0  0  0
    3.0300   -0.1890   -1.5070 H   0  0  0  0  0  0  0  0  0  0  0  0
    1.7760    1.0910   -1.4960 H   0  0  0  0  0  0  0  0  0  0  0  0
    1.4480   -0.4780   -2.2780 H   0  0  0  0  0  0  0  0  0  0  0  0
   -1.7650    2.5330    0.0280 H   0  0  0  0  0  0  0  0  0  0  0  0
   -1.9980    1.0890    1.0620 H   0  0  0  0  0  0  0  0  0  0  0  0
   -2.2280    0.9740   -0.7020 H   0  0  0  0  0  0  0  0  0  0  0  0
  1  2  1  0  0  0  0
  1 10  1  0  0  0  0
  1 11  1  0  0  0  0
  1 12  1  0  0  0  0
  2  3  1  0  0  0  0
  3  4  1  0  0  0  0
  3  6  1  0  0  0  0
  3  8  1  0  0  0  0
  4  5  1  0  0  0  0
  4 13  1  0  0  0  0
  4 14  1  0  0  0  0
  6  7  1  0  0  0  0
  7 15  1  0  0  0  0
  7 16  1  0  0  0  0
  7 17  1  0  0  0  0
  8  9  1  0  0  0  0
  9 18  1  0  0  0  0
  9 19  1  0  0  0  0
  9 20  1  0  0  0  0
M  END
>  <COMPND>
    mobley_3589456 

>  <AUTHOR>
    GENERATED BY OPEN BABEL 2.3.2

>  <MASTER>
        0    0    0    0    0    0    0    0   20    0   20    0

$$$$
