mobley_2850833.pdb
 OpenBabel09222014463D

 15 15  0  0  0  0  0  0  0  0999 V2000
    1.8850   -1.0360   -0.1120 C   0  0  0  0  0  0  0  0  0  0  0  0
    2.9210   -1.6310    0.6080 C   0  0  0  0  0  0  0  0  0  0  0  0
    2.8780   -1.6520    2.0020 C   0  0  0  0  0  0  0  0  0  0  0  0
    1.8000   -1.0790    2.6760 C   0  0  0  0  0  0  0  0  0  0  0  0
    0.7640   -0.4840    1.9550 C   0  0  0  0  0  0  0  0  0  0  0  0
    0.8070   -0.4630    0.5610 C   0  0  0  0  0  0  0  0  0  0  0  0
   -0.3710    0.1200    2.6380 C   0  0  0  0  0  0  0  0  0  0  0  0
   -1.3080    0.6560    2.0410 O   0  0  0  0  0  0  0  0  0  0  0  0
    1.7760   -1.1090    4.0380 O   0  0  0  0  0  0  0  0  0  0  0  0
    1.9190   -1.0200   -1.1980 H   0  0  0  0  0  0  0  0  0  0  0  0
    3.7610   -2.0770    0.0840 H   0  0  0  0  0  0  0  0  0  0  0  0
    3.6890   -2.1170    2.5570 H   0  0  0  0  0  0  0  0  0  0  0  0
    0.0050   -0.0030   -0.0110 H   0  0  0  0  0  0  0  0  0  0  0  0
   -0.3740    0.0870    3.7490 H   0  0  0  0  0  0  0  0  0  0  0  0
    2.5680   -1.5570    4.3760 H   0  0  0  0  0  0  0  0  0  0  0  0
  1  6  2  0  0  0  0
  1  2  1  0  0  0  0
  1 10  1  0  0  0  0
  2  3  2  0  0  0  0
  2 11  1  0  0  0  0
  3  4  1  0  0  0  0
  3 12  1  0  0  0  0
  4  5  2  0  0  0  0
  4  9  1  0  0  0  0
  5  6  1  0  0  0  0
  5  7  1  0  0  0  0
  6 13  1  0  0  0  0
  7  8  2  0  0  0  0
  7 14  1  0  0  0  0
  9 15  1  0  0  0  0
M  END
>  <COMPND>
    mobley_2850833 

>  <AUTHOR>
    GENERATED BY OPEN BABEL 2.3.2

>  <MASTER>
        0    0    0    0    0    0    0    0   15    0   15    0

$$$$
