mobley_7794077.pdb
 OpenBabel09222014463D

 15 15  0  0  0  0  0  0  0  0999 V2000
    1.1620    1.5070    2.5830 C   0  0  0  0  0  0  0  0  0  0  0  0
    0.7830    0.3890    1.9520 C   0  0  0  0  0  0  0  0  0  0  0  0
    1.5360   -0.8690    2.2310 C   0  0  0  0  0  0  0  0  0  0  0  0
    1.2390   -1.9280    1.6860 O   0  0  0  0  0  0  0  0  0  0  0  0
    2.5780   -0.7390    3.1410 N   0  0  0  0  0  0  0  0  0  0  0  0
    2.9650    0.4330    3.7940 C   0  0  0  0  0  0  0  0  0  0  0  0
    3.9020    0.4730    4.5910 O   0  0  0  0  0  0  0  0  0  0  0  0
    2.2040    1.5450    3.4680 N   0  0  0  0  0  0  0  0  0  0  0  0
   -0.3530    0.3290    0.9820 C   0  0  0  0  0  0  0  0  0  0  0  0
   -0.9310    1.5400    0.8360 F   0  0  0  0  0  0  0  0  0  0  0  0
    0.0670   -0.0760   -0.2350 F   0  0  0  0  0  0  0  0  0  0  0  0
   -1.3050   -0.5340    1.3960 F   0  0  0  0  0  0  0  0  0  0  0  0
    0.6610    2.4560    2.4290 H   0  0  0  0  0  0  0  0  0  0  0  0
    3.1100   -1.5790    3.3530 H   0  0  0  0  0  0  0  0  0  0  0  0
    2.4250    2.4360    3.9020 H   0  0  0  0  0  0  0  0  0  0  0  0
  1  8  1  0  0  0  0
  1  2  2  0  0  0  0
  1 13  1  0  0  0  0
  2  3  1  0  0  0  0
  2  9  1  0  0  0  0
  3  4  2  0  0  0  0
  3  5  1  0  0  0  0
  5  6  1  0  0  0  0
  5 14  1  0  0  0  0
  6  7  2  0  0  0  0
  6  8  1  0  0  0  0
  8 15  1  0  0  0  0
  9 10  1  0  0  0  0
  9 11  1  0  0  0  0
  9 12  1  0  0  0  0
M  END
>  <COMPND>
    mobley_7794077 

>  <AUTHOR>
    GENERATED BY OPEN BABEL 2.3.2

>  <MASTER>
        0    0    0    0    0    0    0    0   15    0   15    0

$$$$
