mobley_2487143.pdb
 OpenBabel09222014463D

 19 18  0  0  0  0  0  0  0  0999 V2000
    5.2320   -3.7730    0.9380 C   0  0  0  0  0  0  0  0  0  0  0  0
    4.1010   -2.9950    0.2860 C   0  0  0  0  0  0  0  0  0  0  0  0
    3.2450   -2.2730    1.3260 C   0  0  0  0  0  0  0  0  0  0  0  0
    2.1100   -1.4930    0.6670 C   0  0  0  0  0  0  0  0  0  0  0  0
    1.2350   -0.7590    1.6730 C   0  0  0  0  0  0  0  0  0  0  0  0
    1.4610   -0.8200    2.8870 O   0  0  0  0  0  0  0  0  0  0  0  0
    0.0610    0.0540    1.0940 C   0  0  0  0  0  0  0  0  0  0  0  0
    5.8400   -4.2860    0.1860 H   0  0  0  0  0  0  0  0  0  0  0  0
    5.8850   -3.0950    1.4970 H   0  0  0  0  0  0  0  0  0  0  0  0
    4.8430   -4.5210    1.6360 H   0  0  0  0  0  0  0  0  0  0  0  0
    3.4780   -3.6850   -0.2950 H   0  0  0  0  0  0  0  0  0  0  0  0
    4.5230   -2.2680   -0.4180 H   0  0  0  0  0  0  0  0  0  0  0  0
    3.8730   -1.5890    1.9100 H   0  0  0  0  0  0  0  0  0  0  0  0
    2.8300   -3.0020    2.0330 H   0  0  0  0  0  0  0  0  0  0  0  0
    2.5210   -0.7470   -0.0220 H   0  0  0  0  0  0  0  0  0  0  0  0
    1.4670   -2.1760    0.1020 H   0  0  0  0  0  0  0  0  0  0  0  0
   -0.8500   -0.5530    1.0150 H   0  0  0  0  0  0  0  0  0  0  0  0
   -0.1960    0.9300    1.7020 H   0  0  0  0  0  0  0  0  0  0  0  0
    0.2850    0.4250    0.0860 H   0  0  0  0  0  0  0  0  0  0  0  0
  1  2  1  0  0  0  0
  1  8  1  0  0  0  0
  1  9  1  0  0  0  0
  1 10  1  0  0  0  0
  2  3  1  0  0  0  0
  2 11  1  0  0  0  0
  2 12  1  0  0  0  0
  3  4  1  0  0  0  0
  3 13  1  0  0  0  0
  3 14  1  0  0  0  0
  4  5  1  0  0  0  0
  4 15  1  0  0  0  0
  4 16  1  0  0  0  0
  5  6  2  0  0  0  0
  5  7  1  0  0  0  0
  7 17  1  0  0  0  0
  7 18  1  0  0  0  0
  7 19  1  0  0  0  0
M  END
>  <COMPND>
    mobley_2487143 

>  <AUTHOR>
    GENERATED BY OPEN BABEL 2.3.2

>  <MASTER>
        0    0    0    0    0    0    0    0   19    0   19    0

$$$$
