mobley_5917842.pdb
 OpenBabel09222014463D

 20 20  0  0  0  0  0  0  0  0999 V2000
    1.9310   -1.0160   -1.6030 C   0  0  0  0  0  0  0  0  0  0  0  0
    1.8850   -1.0360   -0.1120 C   0  0  0  0  0  0  0  0  0  0  0  0
    2.9210   -1.6310    0.6080 C   0  0  0  0  0  0  0  0  0  0  0  0
    2.8780   -1.6520    2.0020 C   0  0  0  0  0  0  0  0  0  0  0  0
    1.8000   -1.0790    2.6760 C   0  0  0  0  0  0  0  0  0  0  0  0
    0.7640   -0.4840    1.9550 C   0  0  0  0  0  0  0  0  0  0  0  0
    0.8070   -0.4630    0.5610 C   0  0  0  0  0  0  0  0  0  0  0  0
   -0.2940    0.0800    2.6010 O   0  0  0  0  0  0  0  0  0  0  0  0
   -1.3110    0.6660    1.7910 C   0  0  0  0  0  0  0  0  0  0  0  0
    1.7690   -1.1060    4.0370 O   0  0  0  0  0  0  0  0  0  0  0  0
    2.4390   -0.1100   -1.9490 H   0  0  0  0  0  0  0  0  0  0  0  0
    2.4650   -1.8900   -1.9900 H   0  0  0  0  0  0  0  0  0  0  0  0
    0.9210   -1.0390   -2.0260 H   0  0  0  0  0  0  0  0  0  0  0  0
    3.7650   -2.0810    0.0920 H   0  0  0  0  0  0  0  0  0  0  0  0
    3.6890   -2.1160    2.5580 H   0  0  0  0  0  0  0  0  0  0  0  0
   -0.0020    0.0000    0.0020 H   0  0  0  0  0  0  0  0  0  0  0  0
   -2.0870    1.0750    2.4370 H   0  0  0  0  0  0  0  0  0  0  0  0
   -1.7230   -0.0960    1.1310 H   0  0  0  0  0  0  0  0  0  0  0  0
   -0.8640    1.4640    1.2000 H   0  0  0  0  0  0  0  0  0  0  0  0
    0.9650   -0.6730    4.3630 H   0  0  0  0  0  0  0  0  0  0  0  0
  1  2  1  0  0  0  0
  1 11  1  0  0  0  0
  1 12  1  0  0  0  0
  1 13  1  0  0  0  0
  2  7  2  0  0  0  0
  2  3  1  0  0  0  0
  3  4  2  0  0  0  0
  3 14  1  0  0  0  0
  4  5  1  0  0  0  0
  4 15  1  0  0  0  0
  5  6  2  0  0  0  0
  5 10  1  0  0  0  0
  6  7  1  0  0  0  0
  6  8  1  0  0  0  0
  7 16  1  0  0  0  0
  8  9  1  0  0  0  0
  9 17  1  0  0  0  0
  9 18  1  0  0  0  0
  9 19  1  0  0  0  0
 10 20  1  0  0  0  0
M  END
>  <COMPND>
    mobley_5917842 

>  <AUTHOR>
    GENERATED BY OPEN BABEL 2.3.2

>  <MASTER>
        0    0    0    0    0    0    0    0   20    0   20    0

$$$$
