mobley_4613090.pdb
 OpenBabel09222014463D

 22 23  0  0  0  0  0  0  0  0999 V2000
    1.8850   -1.0360   -0.1120 C   0  0  0  0  0  0  0  0  0  0  0  0
    2.9210   -1.6310    0.6080 C   0  0  0  0  0  0  0  0  0  0  0  0
    2.8780   -1.6520    2.0020 C   0  0  0  0  0  0  0  0  0  0  0  0
    1.8000   -1.0790    2.6760 C   0  0  0  0  0  0  0  0  0  0  0  0
    0.7640   -0.4840    1.9550 C   0  0  0  0  0  0  0  0  0  0  0  0
    0.8070   -0.4630    0.5610 C   0  0  0  0  0  0  0  0  0  0  0  0
    1.7550   -1.1010    4.1660 C   0  0  0  0  0  0  0  0  0  0  0  0
    2.3950    0.0820    4.7510 N   0  0  0  0  0  0  0  0  0  0  0  0
    3.7160    0.2100    5.1000 C   0  0  0  0  0  0  0  0  0  0  0  0
    3.9720    1.4560    5.6220 C   0  0  0  0  0  0  0  0  0  0  0  0
    2.7700    2.1040    5.5880 N   0  0  0  0  0  0  0  0  0  0  0  0
    1.8530    1.2390    5.0580 C   0  0  0  0  0  0  0  0  0  0  0  0
    1.9180   -1.0210   -1.1980 H   0  0  0  0  0  0  0  0  0  0  0  0
    3.7600   -2.0780    0.0840 H   0  0  0  0  0  0  0  0  0  0  0  0
    3.6900   -2.1170    2.5550 H   0  0  0  0  0  0  0  0  0  0  0  0
   -0.0800   -0.0350    2.4710 H   0  0  0  0  0  0  0  0  0  0  0  0
   -0.0010   -0.0010    0.0000 H   0  0  0  0  0  0  0  0  0  0  0  0
    0.7210   -1.1410    4.5440 H   0  0  0  0  0  0  0  0  0  0  0  0
    2.2590   -1.9900    4.5780 H   0  0  0  0  0  0  0  0  0  0  0  0
    4.3910   -0.6210    4.9450 H   0  0  0  0  0  0  0  0  0  0  0  0
    4.8840    1.8960    5.9930 H   0  0  0  0  0  0  0  0  0  0  0  0
    0.8110    1.4960    4.9170 H   0  0  0  0  0  0  0  0  0  0  0  0
  1  6  2  0  0  0  0
  1  2  1  0  0  0  0
  1 13  1  0  0  0  0
  2  3  2  0  0  0  0
  2 14  1  0  0  0  0
  3  4  1  0  0  0  0
  3 15  1  0  0  0  0
  4  5  2  0  0  0  0
  4  7  1  0  0  0  0
  5  6  1  0  0  0  0
  5 16  1  0  0  0  0
  6 17  1  0  0  0  0
  7  8  1  0  0  0  0
  7 18  1  0  0  0  0
  7 19  1  0  0  0  0
  8 12  1  0  0  0  0
  8  9  1  0  0  0  0
  9 10  2  0  0  0  0
  9 20  1  0  0  0  0
 10 11  1  0  0  0  0
 10 21  1  0  0  0  0
 11 12  2  0  0  0  0
 12 22  1  0  0  0  0
M  END
>  <COMPND>
    mobley_4613090 

>  <AUTHOR>
    GENERATED BY OPEN BABEL 2.3.2

>  <MASTER>
        0    0    0    0    0    0    0    0   22    0   22    0

$$$$
