mobley_7869158.pdb
 OpenBabel09222014463D

 17 16  0  0  1  0  0  0  0  0999 V2000
    0.9780   -0.0330   -0.2360 C   0  0  0  0  0  0  0  0  0  0  0  0
    1.4100    0.6790   -1.5110 C   0  0  0  0  0  0  0  0  0  0  0  0
    0.6390    0.1880   -2.7390 C   0  0  2  0  0  0  0  0  0  0  0  0
    0.8080   -0.8860   -2.8800 H   0  0  0  0  0  0  0  0  0  0  0  0
    1.0610    0.9420   -3.9930 C   0  0  0  0  0  0  0  0  0  0  0  0
   -0.7550    0.3900   -2.5270 O   0  0  0  0  0  0  0  0  0  0  0  0
   -1.5760   -0.4130   -3.3640 N   0  0  0  0  0  0  0  0  0  0  0  0
   -1.0160   -1.1730   -4.1580 O   0  5  0  0  0  0  0  0  0  0  0  0
   -2.7780   -0.2290   -3.1700 O   0  5  0  0  0  0  0  0  0  0  0  0
    1.5420    0.3350    0.6270 H   0  0  0  0  0  0  0  0  0  0  0  0
    1.1300   -1.1140   -0.3110 H   0  0  0  0  0  0  0  0  0  0  0  0
   -0.0850    0.1450   -0.0460 H   0  0  0  0  0  0  0  0  0  0  0  0
    2.4850    0.5240   -1.6590 H   0  0  0  0  0  0  0  0  0  0  0  0
    1.2460    1.7550   -1.3740 H   0  0  0  0  0  0  0  0  0  0  0  0
    0.5070    0.5870   -4.8690 H   0  0  0  0  0  0  0  0  0  0  0  0
    0.8950    2.0180   -3.8840 H   0  0  0  0  0  0  0  0  0  0  0  0
    2.1230    0.7730   -4.2030 H   0  0  0  0  0  0  0  0  0  0  0  0
  1  2  1  0  0  0  0
  1 10  1  0  0  0  0
  1 11  1  0  0  0  0
  1 12  1  0  0  0  0
  2  3  1  0  0  0  0
  2 13  1  0  0  0  0
  2 14  1  0  0  0  0
  3  4  1  6  0  0  0
  3  5  1  0  0  0  0
  3  6  1  0  0  0  0
  5 15  1  0  0  0  0
  5 16  1  0  0  0  0
  5 17  1  0  0  0  0
  6  7  1  0  0  0  0
  7  8  2  0  0  0  0
  7  9  2  0  0  0  0
M  CHG  2   8  -1   9  -1
M  END
>  <COMPND>
    mobley_7869158 

>  <AUTHOR>
    GENERATED BY OPEN BABEL 2.3.2

>  <MASTER>
        0    0    0    0    0    0    0    0   17    0   17    0

$$$$
