mobley_4893032.pdb
 OpenBabel09222014463D

 15 14  0  0  0  0  0  0  0  0999 V2000
    0.1080    0.9370    0.5560 C   0  0  0  0  0  0  0  0  0  0  0  0
    0.2520    0.6530    2.0420 C   0  0  0  0  0  0  0  0  0  0  0  0
    0.4020    1.9430    2.8480 C   0  0  0  0  0  0  0  0  0  0  0  0
    0.5470    1.6540    4.3410 C   0  0  0  0  0  0  0  0  0  0  0  0
    0.6900    2.8980    5.1090 C   0  0  0  0  0  0  0  0  0  0  0  0
    0.8020    3.8800    5.7170 N   0  0  0  0  0  0  0  0  0  0  0  0
    0.0020    0.0070   -0.0120 H   0  0  0  0  0  0  0  0  0  0  0  0
   -0.7790    1.5500    0.3720 H   0  0  0  0  0  0  0  0  0  0  0  0
    0.9800    1.4760    0.1730 H   0  0  0  0  0  0  0  0  0  0  0  0
   -0.6270    0.0970    2.3890 H   0  0  0  0  0  0  0  0  0  0  0  0
    1.1260    0.0100    2.2030 H   0  0  0  0  0  0  0  0  0  0  0  0
   -0.4710    2.5870    2.6770 H   0  0  0  0  0  0  0  0  0  0  0  0
    1.2780    2.5000    2.4910 H   0  0  0  0  0  0  0  0  0  0  0  0
   -0.3300    1.1030    4.7010 H   0  0  0  0  0  0  0  0  0  0  0  0
    1.4210    1.0160    4.5140 H   0  0  0  0  0  0  0  0  0  0  0  0
  1  2  1  0  0  0  0
  1  7  1  0  0  0  0
  1  8  1  0  0  0  0
  1  9  1  0  0  0  0
  2  3  1  0  0  0  0
  2 10  1  0  0  0  0
  2 11  1  0  0  0  0
  3  4  1  0  0  0  0
  3 12  1  0  0  0  0
  3 13  1  0  0  0  0
  4  5  1  0  0  0  0
  4 14  1  0  0  0  0
  4 15  1  0  0  0  0
  5  6  3  0  0  0  0
M  END
>  <COMPND>
    mobley_4893032 

>  <AUTHOR>
    GENERATED BY OPEN BABEL 2.3.2

>  <MASTER>
        0    0    0    0    0    0    0    0   15    0   15    0

$$$$
