mobley_3762186.pdb
 OpenBabel09222014463D

  5  4  0  0  0  0  0  0  0  0999 V2000
   -0.0530    0.1330    0.0380 C   0  0  0  0  0  0  0  0  0  0  0  0
   -1.0080   -1.1370   -0.7360 Cl  0  0  0  0  0  0  0  0  0  0  0  0
    1.6140   -0.3930    0.3000 Cl  0  0  0  0  0  0  0  0  0  0  0  0
   -0.5040    0.3800    1.0020 H   0  0  0  0  0  0  0  0  0  0  0  0
   -0.0500    1.0170   -0.6050 H   0  0  0  0  0  0  0  0  0  0  0  0
  1  2  1  0  0  0  0
  1  3  1  0  0  0  0
  1  4  1  0  0  0  0
  1  5  1  0  0  0  0
M  END
>  <COMPND>
    mobley_3762186 

>  <AUTHOR>
    GENERATED BY OPEN BABEL 2.3.2

>  <MASTER>
        0    0    0    0    0    0    0    0    5    0    5    0

$$$$
