mobley_2049967.pdb
 OpenBabel09222014463D

 12 11  0  0  0  0  0  0  0  0999 V2000
    0.4410   -0.3500    0.9400 C   0  0  0  0  0  0  0  0  0  0  0  0
    1.8520   -0.8680    0.7340 C   0  0  0  0  0  0  0  0  0  0  0  0
    2.9260    0.4450    0.0920 S   0  0  0  0  0  0  0  0  0  0  0  0
    4.4610   -0.5020   -0.0230 C   0  0  0  0  0  0  0  0  0  0  0  0
   -0.2220   -1.1310    1.3270 H   0  0  0  0  0  0  0  0  0  0  0  0
    0.4210    0.4990    1.6310 H   0  0  0  0  0  0  0  0  0  0  0  0
    0.0270   -0.0090   -0.0150 H   0  0  0  0  0  0  0  0  0  0  0  0
    1.8500   -1.7010    0.0240 H   0  0  0  0  0  0  0  0  0  0  0  0
    2.2640   -1.2290    1.6810 H   0  0  0  0  0  0  0  0  0  0  0  0
    5.2600    0.1360   -0.4040 H   0  0  0  0  0  0  0  0  0  0  0  0
    4.3220   -1.3470   -0.7000 H   0  0  0  0  0  0  0  0  0  0  0  0
    4.7380   -0.8750    0.9650 H   0  0  0  0  0  0  0  0  0  0  0  0
  1  2  1  0  0  0  0
  1  5  1  0  0  0  0
  1  6  1  0  0  0  0
  1  7  1  0  0  0  0
  2  3  1  0  0  0  0
  2  8  1  0  0  0  0
  2  9  1  0  0  0  0
  3  4  1  0  0  0  0
  4 10  1  0  0  0  0
  4 11  1  0  0  0  0
  4 12  1  0  0  0  0
M  END
>  <COMPND>
    mobley_2049967 

>  <AUTHOR>
    GENERATED BY OPEN BABEL 2.3.2

>  <MASTER>
        0    0    0    0    0    0    0    0   12    0   12    0

$$$$
