mobley_6250025.pdb
 OpenBabel09222014463D

 20 19  0  0  0  0  0  0  0  0999 V2000
   -0.7810   -1.8520    2.5100 C   0  0  0  0  0  0  0  0  0  0  0  0
    0.1760   -1.3620    1.4360 C   0  0  0  0  0  0  0  0  0  0  0  0
   -0.4640   -0.2790    0.5670 C   0  0  0  0  0  0  0  0  0  0  0  0
    0.5020    0.2110   -0.5130 C   0  0  0  0  0  0  0  0  0  0  0  0
   -0.1390    1.2940   -1.3830 C   0  0  0  0  0  0  0  0  0  0  0  0
    0.8310    1.7810   -2.4600 C   0  0  0  0  0  0  0  0  0  0  0  0
   -0.0790    3.2940   -3.6670 I   0  0  0  0  0  0  0  0  0  0  0  0
   -0.3140   -2.6270    3.1280 H   0  0  0  0  0  0  0  0  0  0  0  0
   -1.6900   -2.2680    2.0660 H   0  0  0  0  0  0  0  0  0  0  0  0
   -1.0710   -1.0240    3.1660 H   0  0  0  0  0  0  0  0  0  0  0  0
    0.4800   -2.2100    0.8110 H   0  0  0  0  0  0  0  0  0  0  0  0
    1.0820   -0.9690    1.9130 H   0  0  0  0  0  0  0  0  0  0  0  0
   -0.7690    0.5650    1.1970 H   0  0  0  0  0  0  0  0  0  0  0  0
   -1.3720   -0.6760    0.0960 H   0  0  0  0  0  0  0  0  0  0  0  0
    0.8080   -0.6330   -1.1430 H   0  0  0  0  0  0  0  0  0  0  0  0
    1.4090    0.6080   -0.0410 H   0  0  0  0  0  0  0  0  0  0  0  0
   -1.0480    0.8960   -1.8490 H   0  0  0  0  0  0  0  0  0  0  0  0
   -0.4470    2.1350   -0.7480 H   0  0  0  0  0  0  0  0  0  0  0  0
    1.7370    2.1840   -1.9950 H   0  0  0  0  0  0  0  0  0  0  0  0
    1.1350    0.9430   -3.0970 H   0  0  0  0  0  0  0  0  0  0  0  0
  1  2  1  0  0  0  0
  1  8  1  0  0  0  0
  1  9  1  0  0  0  0
  1 10  1  0  0  0  0
  2  3  1  0  0  0  0
  2 11  1  0  0  0  0
  2 12  1  0  0  0  0
  3  4  1  0  0  0  0
  3 13  1  0  0  0  0
  3 14  1  0  0  0  0
  4  5  1  0  0  0  0
  4 15  1  0  0  0  0
  4 16  1  0  0  0  0
  5  6  1  0  0  0  0
  5 17  1  0  0  0  0
  5 18  1  0  0  0  0
  6  7  1  0  0  0  0
  6 19  1  0  0  0  0
  6 20  1  0  0  0  0
M  END
>  <COMPND>
    mobley_6250025 

>  <AUTHOR>
    GENERATED BY OPEN BABEL 2.3.2

>  <MASTER>
        0    0    0    0    0    0    0    0   20    0   20    0

$$$$
