mobley_2489709.pdb
 OpenBabel09222014463D

 12 12  0  0  0  0  0  0  0  0999 V2000
    1.8850   -1.0360   -0.1120 C   0  0  0  0  0  0  0  0  0  0  0  0
    2.9210   -1.6310    0.6080 C   0  0  0  0  0  0  0  0  0  0  0  0
    2.8780   -1.6520    2.0020 C   0  0  0  0  0  0  0  0  0  0  0  0
    1.8000   -1.0790    2.6760 C   0  0  0  0  0  0  0  0  0  0  0  0
    0.7640   -0.4840    1.9550 C   0  0  0  0  0  0  0  0  0  0  0  0
    0.8070   -0.4630    0.5610 C   0  0  0  0  0  0  0  0  0  0  0  0
   -0.5990    0.2430    2.7320 Cl  0  0  0  0  0  0  0  0  0  0  0  0
    1.8040   -1.1370    4.4030 Cl  0  0  0  0  0  0  0  0  0  0  0  0
    1.9190   -1.0200   -1.1980 H   0  0  0  0  0  0  0  0  0  0  0  0
    3.7610   -2.0770    0.0840 H   0  0  0  0  0  0  0  0  0  0  0  0
    3.6940   -2.1200    2.5480 H   0  0  0  0  0  0  0  0  0  0  0  0
    0.0080   -0.0040   -0.0170 H   0  0  0  0  0  0  0  0  0  0  0  0
  1  6  2  0  0  0  0
  1  2  1  0  0  0  0
  1  9  1  0  0  0  0
  2  3  2  0  0  0  0
  2 10  1  0  0  0  0
  3  4  1  0  0  0  0
  3 11  1  0  0  0  0
  4  5  2  0  0  0  0
  4  8  1  0  0  0  0
  5  6  1  0  0  0  0
  5  7  1  0  0  0  0
  6 12  1  0  0  0  0
M  END
>  <COMPND>
    mobley_2489709 

>  <AUTHOR>
    GENERATED BY OPEN BABEL 2.3.2

>  <MASTER>
        0    0    0    0    0    0    0    0   12    0   12    0

$$$$
