mobley_1636752.pdb
 OpenBabel09222014463D

  6  5  0  0  0  0  0  0  0  0999 V2000
    0.2830    0.7680    0.7240 C   0  0  0  0  0  0  0  0  0  0  0  0
   -0.3110    2.0010    0.3620 O   0  0  0  0  0  0  0  0  0  0  0  0
   -0.0650    0.4720    1.7160 H   0  0  0  0  0  0  0  0  0  0  0  0
    1.3710    0.8740    0.7240 H   0  0  0  0  0  0  0  0  0  0  0  0
   -0.0070    0.0070   -0.0040 H   0  0  0  0  0  0  0  0  0  0  0  0
    0.0220    2.2300   -0.5220 H   0  0  0  0  0  0  0  0  0  0  0  0
  1  2  1  0  0  0  0
  1  3  1  0  0  0  0
  1  4  1  0  0  0  0
  1  5  1  0  0  0  0
  2  6  1  0  0  0  0
M  END
>  <COMPND>
    mobley_1636752 

>  <AUTHOR>
    GENERATED BY OPEN BABEL 2.3.2

>  <MASTER>
        0    0    0    0    0    0    0    0    6    0    6    0

$$$$
