mobley_5220185.pdb
 OpenBabel09222014463D

 16 16  0  0  0  0  0  0  0  0999 V2000
    0.7910    0.9900    1.1550 C   0  0  0  0  0  0  0  0  0  0  0  0
    0.0880    0.3940   -0.0550 C   0  0  0  0  0  0  0  0  0  0  0  0
   -0.3210   -1.0180    0.1820 C   0  0  0  0  0  0  0  0  0  0  0  0
   -1.5570   -1.3070    0.7170 C   0  0  0  0  0  0  0  0  0  0  0  0
   -1.9570   -2.5740    0.9450 N   0  0  0  0  0  0  0  0  0  0  0  0
   -1.0770   -3.5410    0.6190 C   0  0  0  0  0  0  0  0  0  0  0  0
    0.1590   -3.2520    0.0830 C   0  0  0  0  0  0  0  0  0  0  0  0
    0.5590   -1.9850   -0.1440 N   0  0  0  0  0  0  0  0  0  0  0  0
    1.0880    2.0280    0.9710 H   0  0  0  0  0  0  0  0  0  0  0  0
    1.6930    0.4160    1.3890 H   0  0  0  0  0  0  0  0  0  0  0  0
    0.1430    0.9770    2.0380 H   0  0  0  0  0  0  0  0  0  0  0  0
    0.7480    0.4450   -0.9290 H   0  0  0  0  0  0  0  0  0  0  0  0
   -0.7940    0.9970   -0.3050 H   0  0  0  0  0  0  0  0  0  0  0  0
   -2.2690   -0.5350    0.9840 H   0  0  0  0  0  0  0  0  0  0  0  0
   -1.3990   -4.5590    0.8020 H   0  0  0  0  0  0  0  0  0  0  0  0
    0.8650   -4.0290   -0.1800 H   0  0  0  0  0  0  0  0  0  0  0  0
  1  2  1  0  0  0  0
  1  9  1  0  0  0  0
  1 10  1  0  0  0  0
  1 11  1  0  0  0  0
  2  3  1  0  0  0  0
  2 12  1  0  0  0  0
  2 13  1  0  0  0  0
  3  8  2  0  0  0  0
  3  4  1  0  0  0  0
  4  5  2  0  0  0  0
  4 14  1  0  0  0  0
  5  6  1  0  0  0  0
  6  7  2  0  0  0  0
  6 15  1  0  0  0  0
  7  8  1  0  0  0  0
  7 16  1  0  0  0  0
M  END
>  <COMPND>
    mobley_5220185 

>  <AUTHOR>
    GENERATED BY OPEN BABEL 2.3.2

>  <MASTER>
        0    0    0    0    0    0    0    0   16    0   16    0

$$$$
