mobley_210639.pdb
 OpenBabel09222014463D

 11 10  0  0  0  0  0  0  0  0999 V2000
    0.9210   -0.8870   -0.1920 C   0  0  0  0  0  0  0  0  0  0  0  0
    0.3040    0.4550    0.1910 C   0  0  0  0  0  0  0  0  0  0  0  0
   -1.2190    0.3750    0.2120 C   0  0  0  0  0  0  0  0  0  0  0  0
    0.9330    1.9700   -1.2110 I   0  0  0  0  0  0  0  0  0  0  0  0
    2.0150   -0.8310   -0.2070 H   0  0  0  0  0  0  0  0  0  0  0  0
    0.6390   -1.6600    0.5310 H   0  0  0  0  0  0  0  0  0  0  0  0
    0.5890   -1.2190   -1.1820 H   0  0  0  0  0  0  0  0  0  0  0  0
    0.6590    0.7380    1.1890 H   0  0  0  0  0  0  0  0  0  0  0  0
   -1.6630    1.3380    0.4870 H   0  0  0  0  0  0  0  0  0  0  0  0
   -1.5550   -0.3660    0.9460 H   0  0  0  0  0  0  0  0  0  0  0  0
   -1.6240    0.0860   -0.7640 H   0  0  0  0  0  0  0  0  0  0  0  0
  1  2  1  0  0  0  0
  1  5  1  0  0  0  0
  1  6  1  0  0  0  0
  1  7  1  0  0  0  0
  2  3  1  0  0  0  0
  2  4  1  0  0  0  0
  2  8  1  0  0  0  0
  3  9  1  0  0  0  0
  3 10  1  0  0  0  0
  3 11  1  0  0  0  0
M  END
>  <COMPND>
    mobley_210639 

>  <AUTHOR>
    GENERATED BY OPEN BABEL 2.3.2

>  <MASTER>
        0    0    0    0    0    0    0    0   11    0   11    0

$$$$
