mobley_8705848.pdb
 OpenBabel09222014463D

 22 21  0  0  0  0  0  0  0  0999 V2000
    1.5590    0.7060    2.5690 C   0  0  0  0  0  0  0  0  0  0  0  0
    0.9770   -0.5160    1.8750 C   0  0  0  0  0  0  0  0  0  0  0  0
    0.2650   -1.4370    2.8560 C   0  0  0  0  0  0  0  0  0  0  0  0
    2.0720   -1.2700    1.2180 N   0  0  0  0  0  0  0  0  0  0  0  0
    2.4180   -0.6430   -0.0400 C   0  0  0  0  0  0  0  0  0  0  0  0
    1.4170   -1.0460   -1.1310 C   0  0  0  0  0  0  0  0  0  0  0  0
    3.8430   -1.0340   -0.4510 C   0  0  0  0  0  0  0  0  0  0  0  0
    2.0670    1.3580    1.8510 H   0  0  0  0  0  0  0  0  0  0  0  0
    0.7790    1.2910    3.0690 H   0  0  0  0  0  0  0  0  0  0  0  0
    2.2870    0.4090    3.3320 H   0  0  0  0  0  0  0  0  0  0  0  0
    0.2730   -0.1970    1.0980 H   0  0  0  0  0  0  0  0  0  0  0  0
   -0.1470   -2.3100    2.3390 H   0  0  0  0  0  0  0  0  0  0  0  0
   -0.5600   -0.9150    3.3510 H   0  0  0  0  0  0  0  0  0  0  0  0
    0.9500   -1.8040    3.6280 H   0  0  0  0  0  0  0  0  0  0  0  0
    2.8670   -1.2680    1.8430 H   0  0  0  0  0  0  0  0  0  0  0  0
    2.3840    0.4580    0.0690 H   0  0  0  0  0  0  0  0  0  0  0  0
    1.6530   -0.5860   -2.0960 H   0  0  0  0  0  0  0  0  0  0  0  0
    1.4040   -2.1330   -1.2640 H   0  0  0  0  0  0  0  0  0  0  0  0
    0.4060   -0.7370   -0.8460 H   0  0  0  0  0  0  0  0  0  0  0  0
    4.1040   -0.5590   -1.4030 H   0  0  0  0  0  0  0  0  0  0  0  0
    3.9560   -2.1160   -0.5710 H   0  0  0  0  0  0  0  0  0  0  0  0
    4.5710   -0.6950    0.2950 H   0  0  0  0  0  0  0  0  0  0  0  0
  1  2  1  0  0  0  0
  1  8  1  0  0  0  0
  1  9  1  0  0  0  0
  1 10  1  0  0  0  0
  2  3  1  0  0  0  0
  2  4  1  0  0  0  0
  2 11  1  0  0  0  0
  3 12  1  0  0  0  0
  3 13  1  0  0  0  0
  3 14  1  0  0  0  0
  4  5  1  0  0  0  0
  4 15  1  0  0  0  0
  5  6  1  0  0  0  0
  5  7  1  0  0  0  0
  5 16  1  0  0  0  0
  6 17  1  0  0  0  0
  6 18  1  0  0  0  0
  6 19  1  0  0  0  0
  7 20  1  0  0  0  0
  7 21  1  0  0  0  0
  7 22  1  0  0  0  0
M  END
>  <COMPND>
    mobley_8705848 

>  <AUTHOR>
    GENERATED BY OPEN BABEL 2.3.2

>  <MASTER>
        0    0    0    0    0    0    0    0   22    0   22    0

$$$$
