mobley_7157427.pdb
 OpenBabel09222014463D

 23 22  0  0  0  0  0  0  0  0999 V2000
    0.4060   -1.8820    3.5580 C   0  0  0  0  0  0  0  0  0  0  0  0
    0.3080   -0.6730    2.6410 C   0  0  0  0  0  0  0  0  0  0  0  0
   -0.0090   -1.0320    1.1880 C   0  0  0  0  0  0  0  0  0  0  0  0
   -0.1060    0.1880    0.2690 C   0  0  0  0  0  0  0  0  0  0  0  0
   -0.4240   -0.2270   -1.1710 C   0  0  0  0  0  0  0  0  0  0  0  0
   -0.5220    0.9940   -2.0900 C   0  0  0  0  0  0  0  0  0  0  0  0
   -0.8380    0.6350   -3.5390 C   0  0  0  0  0  0  0  0  0  0  0  0
   -0.9430    2.0760   -4.5770 Cl  0  0  0  0  0  0  0  0  0  0  0  0
    0.6340   -1.5610    4.5800 H   0  0  0  0  0  0  0  0  0  0  0  0
    1.2010   -2.5630    3.2410 H   0  0  0  0  0  0  0  0  0  0  0  0
   -0.5380   -2.4360    3.5800 H   0  0  0  0  0  0  0  0  0  0  0  0
    1.2430   -0.1020    2.6890 H   0  0  0  0  0  0  0  0  0  0  0  0
   -0.4840   -0.0150    3.0160 H   0  0  0  0  0  0  0  0  0  0  0  0
    0.7520   -1.7240    0.8060 H   0  0  0  0  0  0  0  0  0  0  0  0
   -0.9640   -1.5720    1.1690 H   0  0  0  0  0  0  0  0  0  0  0  0
   -0.8870    0.8640    0.6360 H   0  0  0  0  0  0  0  0  0  0  0  0
    0.8390    0.7430    0.2810 H   0  0  0  0  0  0  0  0  0  0  0  0
    0.3580   -0.9010   -1.5390 H   0  0  0  0  0  0  0  0  0  0  0  0
   -1.3670   -0.7860   -1.1830 H   0  0  0  0  0  0  0  0  0  0  0  0
    0.4370    1.5280   -2.0730 H   0  0  0  0  0  0  0  0  0  0  0  0
   -1.2760    1.6910   -1.7050 H   0  0  0  0  0  0  0  0  0  0  0  0
   -0.0480   -0.0010   -3.9490 H   0  0  0  0  0  0  0  0  0  0  0  0
   -1.7860    0.0950   -3.6140 H   0  0  0  0  0  0  0  0  0  0  0  0
  1  2  1  0  0  0  0
  1  9  1  0  0  0  0
  1 10  1  0  0  0  0
  1 11  1  0  0  0  0
  2  3  1  0  0  0  0
  2 12  1  0  0  0  0
  2 13  1  0  0  0  0
  3  4  1  0  0  0  0
  3 14  1  0  0  0  0
  3 15  1  0  0  0  0
  4  5  1  0  0  0  0
  4 16  1  0  0  0  0
  4 17  1  0  0  0  0
  5  6  1  0  0  0  0
  5 18  1  0  0  0  0
  5 19  1  0  0  0  0
  6  7  1  0  0  0  0
  6 20  1  0  0  0  0
  6 21  1  0  0  0  0
  7  8  1  0  0  0  0
  7 22  1  0  0  0  0
  7 23  1  0  0  0  0
M  END
>  <COMPND>
    mobley_7157427 

>  <AUTHOR>
    GENERATED BY OPEN BABEL 2.3.2

>  <MASTER>
        0    0    0    0    0    0    0    0   23    0   23    0

$$$$
