mobley_8191186.pdb
 OpenBabel09222014463D

  8  7  0  0  0  0  0  0  0  0999 V2000
    0.6880   -0.1550   -0.2970 C   0  0  0  0  0  0  0  0  0  0  0  0
   -0.5960    0.1950    0.4140 C   0  0  0  0  0  0  0  0  0  0  0  0
   -1.4060   -0.8780    0.5320 F   0  0  0  0  0  0  0  0  0  0  0  0
   -1.2740    1.1650   -0.2360 F   0  0  0  0  0  0  0  0  0  0  0  0
   -0.3340    0.6460    1.6610 F   0  0  0  0  0  0  0  0  0  0  0  0
    0.3580   -0.7660   -1.9320 Cl  0  0  0  0  0  0  0  0  0  0  0  0
    1.3310    0.7240   -0.3900 H   0  0  0  0  0  0  0  0  0  0  0  0
    1.2330   -0.9310    0.2480 H   0  0  0  0  0  0  0  0  0  0  0  0
  1  2  1  0  0  0  0
  1  6  1  0  0  0  0
  1  7  1  0  0  0  0
  1  8  1  0  0  0  0
  2  3  1  0  0  0  0
  2  4  1  0  0  0  0
  2  5  1  0  0  0  0
M  END
>  <COMPND>
    mobley_8191186 

>  <AUTHOR>
    GENERATED BY OPEN BABEL 2.3.2

>  <MASTER>
        0    0    0    0    0    0    0    0    8    0    8    0

$$$$
