mobley_676247.pdb
 OpenBabel09222014463D

  5  4  0  0  0  0  0  0  0  0999 V2000
    0.0000    0.0000    0.0000 C   0  0  0  0  0  0  0  0  0  0  0  0
    0.4510   -0.8200    0.9640 F   0  0  0  0  0  0  0  0  0  0  0  0
   -0.9230   -0.6400   -0.7360 F   0  0  0  0  0  0  0  0  0  0  0  0
   -0.5510    1.0900    0.5600 F   0  0  0  0  0  0  0  0  0  0  0  0
    1.0230    0.3700   -0.7880 F   0  0  0  0  0  0  0  0  0  0  0  0
  1  2  1  0  0  0  0
  1  3  1  0  0  0  0
  1  4  1  0  0  0  0
  1  5  1  0  0  0  0
M  END
>  <COMPND>
    mobley_676247 

>  <AUTHOR>
    GENERATED BY OPEN BABEL 2.3.2

>  <MASTER>
        0    0    0    0    0    0    0    0    5    0    5    0

$$$$
