mobley_1363784.pdb
 OpenBabel09222014463D

 17 17  0  0  0  0  0  0  0  0999 V2000
    2.8850   -0.2660    3.6520 C   0  0  0  0  0  0  0  0  0  0  0  0
    1.6520   -0.6230    2.9000 C   0  0  0  0  0  0  0  0  0  0  0  0
    1.3880   -0.0680    1.6520 C   0  0  0  0  0  0  0  0  0  0  0  0
    0.2270   -0.4200    0.9730 C   0  0  0  0  0  0  0  0  0  0  0  0
   -0.6320   -1.3220    1.5800 C   0  0  0  0  0  0  0  0  0  0  0  0
   -0.4090   -1.8820    2.7910 N   0  0  0  0  0  0  0  0  0  0  0  0
    0.7300   -1.5160    3.4210 C   0  0  0  0  0  0  0  0  0  0  0  0
   -0.0850    0.1560   -0.3620 C   0  0  0  0  0  0  0  0  0  0  0  0
    3.6950   -0.9540    3.3920 H   0  0  0  0  0  0  0  0  0  0  0  0
    3.2010    0.7570    3.4210 H   0  0  0  0  0  0  0  0  0  0  0  0
    2.7110   -0.3150    4.7320 H   0  0  0  0  0  0  0  0  0  0  0  0
    2.0870    0.6360    1.2090 H   0  0  0  0  0  0  0  0  0  0  0  0
   -1.5540   -1.6340    1.0980 H   0  0  0  0  0  0  0  0  0  0  0  0
    0.8820   -1.9800    4.3900 H   0  0  0  0  0  0  0  0  0  0  0  0
    0.3330   -0.4710   -1.1600 H   0  0  0  0  0  0  0  0  0  0  0  0
   -1.1700    0.2390   -0.5210 H   0  0  0  0  0  0  0  0  0  0  0  0
    0.3270    1.1700   -0.4690 H   0  0  0  0  0  0  0  0  0  0  0  0
  1  2  1  0  0  0  0
  1  9  1  0  0  0  0
  1 10  1  0  0  0  0
  1 11  1  0  0  0  0
  2  7  2  0  0  0  0
  2  3  1  0  0  0  0
  3  4  2  0  0  0  0
  3 12  1  0  0  0  0
  4  5  1  0  0  0  0
  4  8  1  0  0  0  0
  5  6  2  0  0  0  0
  5 13  1  0  0  0  0
  6  7  1  0  0  0  0
  7 14  1  0  0  0  0
  8 15  1  0  0  0  0
  8 16  1  0  0  0  0
  8 17  1  0  0  0  0
M  END
>  <COMPND>
    mobley_1363784 

>  <AUTHOR>
    GENERATED BY OPEN BABEL 2.3.2

>  <MASTER>
        0    0    0    0    0    0    0    0   17    0   17    0

$$$$
