mobley_525934.pdb
 OpenBabel09222014463D

  6  5  0  0  0  0  0  0  0  0999 V2000
    0.2790    0.8230    0.6630 C   0  0  0  0  0  0  0  0  0  0  0  0
   -0.4280    2.3670    0.0540 S   0  0  0  0  0  0  0  0  0  0  0  0
   -0.0940    0.6140    1.6690 H   0  0  0  0  0  0  0  0  0  0  0  0
    1.3680    0.9010    0.6960 H   0  0  0  0  0  0  0  0  0  0  0  0
   -0.0010    0.0000    0.0010 H   0  0  0  0  0  0  0  0  0  0  0  0
    0.1840    2.3560   -1.1390 H   0  0  0  0  0  0  0  0  0  0  0  0
  1  2  1  0  0  0  0
  1  3  1  0  0  0  0
  1  4  1  0  0  0  0
  1  5  1  0  0  0  0
  2  6  1  0  0  0  0
M  END
>  <COMPND>
    mobley_525934 

>  <AUTHOR>
    GENERATED BY OPEN BABEL 2.3.2

>  <MASTER>
        0    0    0    0    0    0    0    0    6    0    6    0

$$$$
