mobley_296847.pdb
 OpenBabel09222014463D

 11 11  0  0  0  0  0  0  0  0999 V2000
    1.3880   -0.0680    1.6520 C   0  0  0  0  0  0  0  0  0  0  0  0
    0.2270   -0.4200    0.9730 C   0  0  0  0  0  0  0  0  0  0  0  0
   -0.6320   -1.3220    1.5800 C   0  0  0  0  0  0  0  0  0  0  0  0
   -0.4090   -1.8820    2.7910 N   0  0  0  0  0  0  0  0  0  0  0  0
    0.7300   -1.5160    3.4210 C   0  0  0  0  0  0  0  0  0  0  0  0
    1.6520   -0.6230    2.9000 C   0  0  0  0  0  0  0  0  0  0  0  0
    2.0860    0.6370    1.2100 H   0  0  0  0  0  0  0  0  0  0  0  0
    0.0000   -0.0010    0.0000 H   0  0  0  0  0  0  0  0  0  0  0  0
   -1.5510   -1.6280    1.0920 H   0  0  0  0  0  0  0  0  0  0  0  0
    0.8880   -1.9760    4.3910 H   0  0  0  0  0  0  0  0  0  0  0  0
    2.5510   -0.3630    3.4470 H   0  0  0  0  0  0  0  0  0  0  0  0
  1  6  2  0  0  0  0
  1  2  1  0  0  0  0
  1  7  1  0  0  0  0
  2  3  2  0  0  0  0
  2  8  1  0  0  0  0
  3  4  1  0  0  0  0
  3  9  1  0  0  0  0
  4  5  2  0  0  0  0
  5  6  1  0  0  0  0
  5 10  1  0  0  0  0
  6 11  1  0  0  0  0
M  END
>  <COMPND>
    mobley_296847 

>  <AUTHOR>
    GENERATED BY OPEN BABEL 2.3.2

>  <MASTER>
        0    0    0    0    0    0    0    0   11    0   11    0

$$$$
