mobley_6082662.pdb
 OpenBabel09222014463D

 16 16  0  0  0  0  0  0  0  0999 V2000
    1.8850   -1.0360   -0.1120 C   0  0  0  0  0  0  0  0  0  0  0  0
    2.9210   -1.6310    0.6080 C   0  0  0  0  0  0  0  0  0  0  0  0
    2.8780   -1.6520    2.0020 C   0  0  0  0  0  0  0  0  0  0  0  0
    1.8000   -1.0790    2.6760 C   0  0  0  0  0  0  0  0  0  0  0  0
    0.7640   -0.4840    1.9550 C   0  0  0  0  0  0  0  0  0  0  0  0
    0.8070   -0.4630    0.5610 C   0  0  0  0  0  0  0  0  0  0  0  0
   -0.2410    0.1370   -0.1680 N   0  0  0  0  0  0  0  0  0  0  0  0
    3.9340   -2.2560    2.7360 N   0  0  0  0  0  0  0  0  0  0  0  0
    4.8950   -2.7650    2.1100 O   0  5  0  0  0  0  0  0  0  0  0  0
    3.8760   -2.2640    3.9890 O   0  5  0  0  0  0  0  0  0  0  0  0
    1.9290   -1.0260   -1.1990 H   0  0  0  0  0  0  0  0  0  0  0  0
    3.7560   -2.0740    0.0710 H   0  0  0  0  0  0  0  0  0  0  0  0
    1.7550   -1.0890    3.7620 H   0  0  0  0  0  0  0  0  0  0  0  0
   -0.0720   -0.0400    2.4910 H   0  0  0  0  0  0  0  0  0  0  0  0
   -0.1760    0.1880   -1.1640 H   0  0  0  0  0  0  0  0  0  0  0  0
   -0.9860    0.5850    0.3280 H   0  0  0  0  0  0  0  0  0  0  0  0
  1  6  2  0  0  0  0
  1  2  1  0  0  0  0
  1 11  1  0  0  0  0
  2  3  2  0  0  0  0
  2 12  1  0  0  0  0
  3  4  1  0  0  0  0
  3  8  1  0  0  0  0
  4  5  2  0  0  0  0
  4 13  1  0  0  0  0
  5  6  1  0  0  0  0
  5 14  1  0  0  0  0
  6  7  1  0  0  0  0
  7 15  1  0  0  0  0
  7 16  1  0  0  0  0
  8  9  2  0  0  0  0
  8 10  2  0  0  0  0
M  CHG  2   9  -1  10  -1
M  END
>  <COMPND>
    mobley_6082662 

>  <AUTHOR>
    GENERATED BY OPEN BABEL 2.3.2

>  <MASTER>
        0    0    0    0    0    0    0    0   16    0   16    0

$$$$
