mobley_1952272.pdb
 OpenBabel09222014463D

  7  6  0  0  0  0  0  0  0  0999 V2000
   -0.5250   -0.7550    0.5870 C   0  0  0  0  0  0  0  0  0  0  0  0
   -1.8330   -0.9730   -0.0160 N   0  0  0  0  0  0  0  0  0  0  0  0
   -2.1360   -0.3140   -1.0350 O   0  5  0  0  0  0  0  0  0  0  0  0
   -2.6010   -1.8000    0.5240 O   0  5  0  0  0  0  0  0  0  0  0  0
   -0.6210    0.0400    1.3290 H   0  0  0  0  0  0  0  0  0  0  0  0
    0.1710   -0.4660   -0.2020 H   0  0  0  0  0  0  0  0  0  0  0  0
   -0.2070   -1.6870    1.0590 H   0  0  0  0  0  0  0  0  0  0  0  0
  1  2  1  0  0  0  0
  1  5  1  0  0  0  0
  1  6  1  0  0  0  0
  1  7  1  0  0  0  0
  2  3  2  0  0  0  0
  2  4  2  0  0  0  0
M  CHG  2   3  -1   4  -1
M  END
>  <COMPND>
    mobley_1952272 

>  <AUTHOR>
    GENERATED BY OPEN BABEL 2.3.2

>  <MASTER>
        0    0    0    0    0    0    0    0    7    0    7    0

$$$$
