mobley_766666.pdb
 OpenBabel09222014463D

  6  5  0  0  0  0  0  0  0  0999 V2000
    0.1010   -0.3260   -0.6190 C   0  0  0  0  0  0  0  0  0  0  0  0
    0.0370    0.2550    0.5830 C   0  0  0  0  0  0  0  0  0  0  0  0
    1.4090    0.1980    1.6350 Cl  0  0  0  0  0  0  0  0  0  0  0  0
   -1.3660    1.0780    1.1640 Cl  0  0  0  0  0  0  0  0  0  0  0  0
   -1.1610   -0.3630   -1.7790 Cl  0  0  0  0  0  0  0  0  0  0  0  0
    0.9800   -0.8420   -0.9850 H   0  0  0  0  0  0  0  0  0  0  0  0
  1  2  2  0  0  0  0
  1  5  1  0  0  0  0
  1  6  1  0  0  0  0
  2  3  1  0  0  0  0
  2  4  1  0  0  0  0
M  END
>  <COMPND>
    mobley_766666 

>  <AUTHOR>
    GENERATED BY OPEN BABEL 2.3.2

>  <MASTER>
        0    0    0    0    0    0    0    0    6    0    6    0

$$$$
