mobley_1017962.pdb
 OpenBabel09222014463D

 23 22  0  0  0  0  0  0  0  0999 V2000
    0.0400    1.0640    0.1430 C   0  0  0  0  0  0  0  0  0  0  0  0
   -0.1600    1.4360    1.6040 C   0  0  0  0  0  0  0  0  0  0  0  0
    0.9240    0.8240    2.4920 C   0  0  0  0  0  0  0  0  0  0  0  0
    0.7150    1.2020    3.9620 C   0  0  0  0  0  0  0  0  0  0  0  0
    1.7850    0.6050    4.8760 C   0  0  0  0  0  0  0  0  0  0  0  0
    1.5950    0.9680    6.3320 C   0  0  0  0  0  0  0  0  0  0  0  0
    0.6920    1.6660    6.7720 O   0  0  0  0  0  0  0  0  0  0  0  0
    2.6090    0.4180    7.0630 O   0  0  0  0  0  0  0  0  0  0  0  0
    2.5830    0.7020    8.4650 C   0  0  0  0  0  0  0  0  0  0  0  0
   -0.7400    1.5060   -0.4840 H   0  0  0  0  0  0  0  0  0  0  0  0
    1.0120    1.4120   -0.2200 H   0  0  0  0  0  0  0  0  0  0  0  0
    0.0010   -0.0230    0.0200 H   0  0  0  0  0  0  0  0  0  0  0  0
   -1.1480    1.0890    1.9310 H   0  0  0  0  0  0  0  0  0  0  0  0
   -0.1500    2.5270    1.7020 H   0  0  0  0  0  0  0  0  0  0  0  0
    0.9130   -0.2660    2.3780 H   0  0  0  0  0  0  0  0  0  0  0  0
    1.9090    1.1730    2.1600 H   0  0  0  0  0  0  0  0  0  0  0  0
    0.7510    2.2950    4.0550 H   0  0  0  0  0  0  0  0  0  0  0  0
   -0.2820    0.8870    4.2890 H   0  0  0  0  0  0  0  0  0  0  0  0
    1.7880   -0.4870    4.7760 H   0  0  0  0  0  0  0  0  0  0  0  0
    2.7680    0.9840    4.5740 H   0  0  0  0  0  0  0  0  0  0  0  0
    3.4340    0.2140    8.9370 H   0  0  0  0  0  0  0  0  0  0  0  0
    1.6470    0.3340    8.8800 H   0  0  0  0  0  0  0  0  0  0  0  0
    2.6520    1.7790    8.5950 H   0  0  0  0  0  0  0  0  0  0  0  0
  1  2  1  0  0  0  0
  1 10  1  0  0  0  0
  1 11  1  0  0  0  0
  1 12  1  0  0  0  0
  2  3  1  0  0  0  0
  2 13  1  0  0  0  0
  2 14  1  0  0  0  0
  3  4  1  0  0  0  0
  3 15  1  0  0  0  0
  3 16  1  0  0  0  0
  4  5  1  0  0  0  0
  4 17  1  0  0  0  0
  4 18  1  0  0  0  0
  5  6  1  0  0  0  0
  5 19  1  0  0  0  0
  5 20  1  0  0  0  0
  6  7  2  0  0  0  0
  6  8  1  0  0  0  0
  8  9  1  0  0  0  0
  9 21  1  0  0  0  0
  9 22  1  0  0  0  0
  9 23  1  0  0  0  0
M  END
>  <COMPND>
    mobley_1017962 

>  <AUTHOR>
    GENERATED BY OPEN BABEL 2.3.2

>  <MASTER>
        0    0    0    0    0    0    0    0   23    0   23    0

$$$$
