mobley_8337722.pdb
 OpenBabel09222014463D

 31 31  0  0  1  0  0  0  0  0999 V2000
    0.7610   -1.4080    2.2530 C   0  0  0  0  0  0  0  0  0  0  0  0
    0.9280    0.0810    1.9570 C   0  0  2  0  0  0  0  0  0  0  0  0
    0.0670    0.6090    2.3890 H   0  0  0  0  0  0  0  0  0  0  0  0
    0.9450    0.3350    0.4450 C   0  0  0  0  0  0  0  0  0  0  0  0
    1.1550    1.8130    0.1250 C   0  0  0  0  0  0  0  0  0  0  0  0
    2.4290    2.3630    0.7780 C   0  0  2  0  0  0  0  0  0  0  0  0
    3.2990    1.8540    0.3390 H   0  0  0  0  0  0  0  0  0  0  0  0
    2.4240    2.1030    2.2930 C   0  0  1  0  0  0  0  0  0  0  0  0
    1.6380    2.7020    2.7700 H   0  0  0  0  0  0  0  0  0  0  0  0
    2.2040    0.6220    2.6100 C   0  0  0  0  0  0  0  0  0  0  0  0
    3.6720    2.5110    2.8460 O   0  0  0  0  0  0  0  0  0  0  0  0
    2.5830    3.8550    0.4680 C   0  0  0  0  0  0  0  0  0  0  0  0
    2.6730    4.0790   -1.0390 C   0  0  0  0  0  0  0  0  0  0  0  0
    1.4220    4.6450    1.0630 C   0  0  0  0  0  0  0  0  0  0  0  0
    1.5980   -1.9780    1.8400 H   0  0  0  0  0  0  0  0  0  0  0  0
    0.7220   -1.5840    3.3320 H   0  0  0  0  0  0  0  0  0  0  0  0
   -0.1650   -1.7870    1.8090 H   0  0  0  0  0  0  0  0  0  0  0  0
    1.7430   -0.2530   -0.0250 H   0  0  0  0  0  0  0  0  0  0  0  0
    0.0000    0.0000    0.0000 H   0  0  0  0  0  0  0  0  0  0  0  0
    1.2070    1.9410   -0.9630 H   0  0  0  0  0  0  0  0  0  0  0  0
    0.2830    2.3840    0.4690 H   0  0  0  0  0  0  0  0  0  0  0  0
    3.0770    0.0450    2.2770 H   0  0  0  0  0  0  0  0  0  0  0  0
    2.1600    0.4860    3.6980 H   0  0  0  0  0  0  0  0  0  0  0  0
    3.6250    2.3300    3.7980 H   0  0  0  0  0  0  0  0  0  0  0  0
    3.5140    4.2040    0.9270 H   0  0  0  0  0  0  0  0  0  0  0  0
    2.7840    5.1430   -1.2790 H   0  0  0  0  0  0  0  0  0  0  0  0
    1.7730    3.7110   -1.5420 H   0  0  0  0  0  0  0  0  0  0  0  0
    3.5330    3.5470   -1.4580 H   0  0  0  0  0  0  0  0  0  0  0  0
    1.5170    5.7160    0.8510 H   0  0  0  0  0  0  0  0  0  0  0  0
    1.3860    4.5180    2.1500 H   0  0  0  0  0  0  0  0  0  0  0  0
    0.4660    4.3020    0.6540 H   0  0  0  0  0  0  0  0  0  0  0  0
  1  2  1  0  0  0  0
  1 15  1  0  0  0  0
  1 16  1  0  0  0  0
  1 17  1  0  0  0  0
  2  3  1  1  0  0  0
  2 10  1  0  0  0  0
  2  4  1  0  0  0  0
  4  5  1  0  0  0  0
  4 18  1  0  0  0  0
  4 19  1  0  0  0  0
  5  6  1  0  0  0  0
  5 20  1  0  0  0  0
  5 21  1  0  0  0  0
  6  7  1  6  0  0  0
  6  8  1  0  0  0  0
  6 12  1  0  0  0  0
  8  9  1  1  0  0  0
  8 10  1  0  0  0  0
  8 11  1  0  0  0  0
 10 22  1  0  0  0  0
 10 23  1  0  0  0  0
 11 24  1  0  0  0  0
 12 13  1  0  0  0  0
 12 14  1  0  0  0  0
 12 25  1  0  0  0  0
 13 26  1  0  0  0  0
 13 27  1  0  0  0  0
 13 28  1  0  0  0  0
 14 29  1  0  0  0  0
 14 30  1  0  0  0  0
 14 31  1  0  0  0  0
M  END
>  <COMPND>
    mobley_8337722 

>  <AUTHOR>
    GENERATED BY OPEN BABEL 2.3.2

>  <MASTER>
        0    0    0    0    0    0    0    0   31    0   31    0

$$$$
