mobley_1781152.pdb
 OpenBabel09222014463D

 20 19  0  0  0  0  0  0  0  0999 V2000
    0.7040   -0.4120    0.7310 C   0  0  0  0  0  0  0  0  0  0  0  0
    1.9240   -1.0340    0.0390 C   0  0  0  0  0  0  0  0  0  0  0  0
    2.5940    0.0300   -0.8450 C   0  0  0  0  0  0  0  0  0  0  0  0
    1.4940   -2.2150   -0.8430 C   0  0  0  0  0  0  0  0  0  0  0  0
    2.9200   -1.5220    1.0970 C   0  0  0  0  0  0  0  0  0  0  0  0
    4.0730   -1.1200    1.2000 O   0  0  0  0  0  0  0  0  0  0  0  0
    2.3400   -2.4610    1.9030 O   0  0  0  0  0  0  0  0  0  0  0  0
    3.1760   -2.9930    2.9350 C   0  0  0  0  0  0  0  0  0  0  0  0
    0.1990   -1.1440    1.3720 H   0  0  0  0  0  0  0  0  0  0  0  0
    0.9950    0.4410    1.3550 H   0  0  0  0  0  0  0  0  0  0  0  0
   -0.0340   -0.0530    0.0050 H   0  0  0  0  0  0  0  0  0  0  0  0
    3.4730   -0.3760   -1.3590 H   0  0  0  0  0  0  0  0  0  0  0  0
    2.9220    0.8910   -0.2510 H   0  0  0  0  0  0  0  0  0  0  0  0
    1.9060    0.3980   -1.6150 H   0  0  0  0  0  0  0  0  0  0  0  0
    2.3510   -2.6750   -1.3480 H   0  0  0  0  0  0  0  0  0  0  0  0
    1.0030   -2.9940   -0.2510 H   0  0  0  0  0  0  0  0  0  0  0  0
    0.7950   -1.8900   -1.6220 H   0  0  0  0  0  0  0  0  0  0  0  0
    2.6060   -3.7240    3.5050 H   0  0  0  0  0  0  0  0  0  0  0  0
    3.5050   -2.1760    3.5750 H   0  0  0  0  0  0  0  0  0  0  0  0
    4.0340   -3.4700    2.4670 H   0  0  0  0  0  0  0  0  0  0  0  0
  1  2  1  0  0  0  0
  1  9  1  0  0  0  0
  1 10  1  0  0  0  0
  1 11  1  0  0  0  0
  2  3  1  0  0  0  0
  2  4  1  0  0  0  0
  2  5  1  0  0  0  0
  3 12  1  0  0  0  0
  3 13  1  0  0  0  0
  3 14  1  0  0  0  0
  4 15  1  0  0  0  0
  4 16  1  0  0  0  0
  4 17  1  0  0  0  0
  5  6  2  0  0  0  0
  5  7  1  0  0  0  0
  7  8  1  0  0  0  0
  8 18  1  0  0  0  0
  8 19  1  0  0  0  0
  8 20  1  0  0  0  0
M  END
>  <COMPND>
    mobley_1781152 

>  <AUTHOR>
    GENERATED BY OPEN BABEL 2.3.2

>  <MASTER>
        0    0    0    0    0    0    0    0   20    0   20    0

$$$$
