mobley_1075836.pdb
 OpenBabel09222014463D

 14 13  0  0  0  0  0  0  0  0999 V2000
   -0.8720    0.5460    0.3730 C   0  0  0  0  0  0  0  0  0  0  0  0
   -0.8820    0.5510    1.8920 C   0  0  0  0  0  0  0  0  0  0  0  0
   -2.0710    1.2980    2.4500 C   0  0  0  0  0  0  0  0  0  0  0  0
   -2.9390    1.8430    1.7810 O   0  0  0  0  0  0  0  0  0  0  0  0
   -2.0150    1.2620    3.8140 O   0  0  0  0  0  0  0  0  0  0  0  0
   -3.0820    1.9330    4.4930 C   0  0  0  0  0  0  0  0  0  0  0  0
   -0.0040    0.0010   -0.0120 H   0  0  0  0  0  0  0  0  0  0  0  0
   -1.7760    0.0660   -0.0120 H   0  0  0  0  0  0  0  0  0  0  0  0
   -0.8300    1.5660   -0.0230 H   0  0  0  0  0  0  0  0  0  0  0  0
    0.0310    1.0310    2.2590 H   0  0  0  0  0  0  0  0  0  0  0  0
   -0.9180   -0.4800    2.2580 H   0  0  0  0  0  0  0  0  0  0  0  0
   -2.9300    1.8370    5.5650 H   0  0  0  0  0  0  0  0  0  0  0  0
   -4.0260    1.4800    4.1940 H   0  0  0  0  0  0  0  0  0  0  0  0
   -3.0630    2.9810    4.2050 H   0  0  0  0  0  0  0  0  0  0  0  0
  1  2  1  0  0  0  0
  1  7  1  0  0  0  0
  1  8  1  0  0  0  0
  1  9  1  0  0  0  0
  2  3  1  0  0  0  0
  2 10  1  0  0  0  0
  2 11  1  0  0  0  0
  3  4  2  0  0  0  0
  3  5  1  0  0  0  0
  5  6  1  0  0  0  0
  6 12  1  0  0  0  0
  6 13  1  0  0  0  0
  6 14  1  0  0  0  0
M  END
>  <COMPND>
    mobley_1075836 

>  <AUTHOR>
    GENERATED BY OPEN BABEL 2.3.2

>  <MASTER>
        0    0    0    0    0    0    0    0   14    0   14    0

$$$$
