mobley_5079234.pdb
 OpenBabel09222014463D

 24 23  0  0  0  0  0  0  0  0999 V2000
    2.0150   -2.4050   -0.2390 C   0  0  0  0  0  0  0  0  0  0  0  0
    1.5980   -2.9290   -1.6050 C   0  0  0  0  0  0  0  0  0  0  0  0
    0.0760   -3.0070   -1.7320 C   0  0  0  0  0  0  0  0  0  0  0  0
   -0.3960   -3.5290   -3.0910 C   0  0  0  0  0  0  0  0  0  0  0  0
   -1.9190   -3.6070   -3.2180 C   0  0  0  0  0  0  0  0  0  0  0  0
   -2.3340   -4.1330   -4.5910 C   0  0  0  0  0  0  0  0  0  0  0  0
   -3.8480   -4.2150   -4.7270 C   0  0  0  0  0  0  0  0  0  0  0  0
   -4.1660   -4.7090   -6.0210 O   0  0  0  0  0  0  0  0  0  0  0  0
    3.1050   -2.3520   -0.1550 H   0  0  0  0  0  0  0  0  0  0  0  0
    1.6450   -3.0680    0.5500 H   0  0  0  0  0  0  0  0  0  0  0  0
    1.6070   -1.4050   -0.0610 H   0  0  0  0  0  0  0  0  0  0  0  0
    2.0370   -3.9220   -1.7580 H   0  0  0  0  0  0  0  0  0  0  0  0
    2.0110   -2.2680   -2.3740 H   0  0  0  0  0  0  0  0  0  0  0  0
   -0.3620   -2.0190   -1.5450 H   0  0  0  0  0  0  0  0  0  0  0  0
   -0.3140   -3.6760   -0.9550 H   0  0  0  0  0  0  0  0  0  0  0  0
    0.0100   -2.8970   -3.8900 H   0  0  0  0  0  0  0  0  0  0  0  0
    0.0260   -4.5310   -3.2370 H   0  0  0  0  0  0  0  0  0  0  0  0
   -2.3600   -2.6150   -3.0670 H   0  0  0  0  0  0  0  0  0  0  0  0
   -2.3200   -4.2640   -2.4370 H   0  0  0  0  0  0  0  0  0  0  0  0
   -1.9010   -5.1270   -4.7640 H   0  0  0  0  0  0  0  0  0  0  0  0
   -1.9320   -3.4880   -5.3820 H   0  0  0  0  0  0  0  0  0  0  0  0
   -4.3050   -3.2270   -4.6100 H   0  0  0  0  0  0  0  0  0  0  0  0
   -4.2710   -4.8940   -3.9810 H   0  0  0  0  0  0  0  0  0  0  0  0
   -5.1350   -4.7490   -6.0750 H   0  0  0  0  0  0  0  0  0  0  0  0
  1  2  1  0  0  0  0
  1  9  1  0  0  0  0
  1 10  1  0  0  0  0
  1 11  1  0  0  0  0
  2  3  1  0  0  0  0
  2 12  1  0  0  0  0
  2 13  1  0  0  0  0
  3  4  1  0  0  0  0
  3 14  1  0  0  0  0
  3 15  1  0  0  0  0
  4  5  1  0  0  0  0
  4 16  1  0  0  0  0
  4 17  1  0  0  0  0
  5  6  1  0  0  0  0
  5 18  1  0  0  0  0
  5 19  1  0  0  0  0
  6  7  1  0  0  0  0
  6 20  1  0  0  0  0
  6 21  1  0  0  0  0
  7  8  1  0  0  0  0
  7 22  1  0  0  0  0
  7 23  1  0  0  0  0
  8 24  1  0  0  0  0
M  END
>  <COMPND>
    mobley_5079234 

>  <AUTHOR>
    GENERATED BY OPEN BABEL 2.3.2

>  <MASTER>
        0    0    0    0    0    0    0    0   24    0   24    0

$$$$
