mobley_6359135.pdb
 OpenBabel09222014463D

  5  4  0  0  0  0  0  0  0  0999 V2000
    0.0000    0.0000    0.0000 C   0  0  0  0  0  0  0  0  0  0  0  0
    0.7280   -1.3010    0.9750 Cl  0  0  0  0  0  0  0  0  0  0  0  0
   -1.4700   -0.6100   -0.8020 Cl  0  0  0  0  0  0  0  0  0  0  0  0
   -0.4260    1.3680    1.0590 Cl  0  0  0  0  0  0  0  0  0  0  0  0
    1.1670    0.5430   -1.2320 Cl  0  0  0  0  0  0  0  0  0  0  0  0
  1  2  1  0  0  0  0
  1  3  1  0  0  0  0
  1  4  1  0  0  0  0
  1  5  1  0  0  0  0
M  END
>  <COMPND>
    mobley_6359135 

>  <AUTHOR>
    GENERATED BY OPEN BABEL 2.3.2

>  <MASTER>
        0    0    0    0    0    0    0    0    5    0    5    0

$$$$
