mobley_5076071.pdb
 OpenBabel09222014463D

 35 35  0  0  0  0  0  0  0  0999 V2000
    3.6920   -0.3910   -3.0850 C   0  0  0  0  0  0  0  0  0  0  0  0
    2.5600    0.0880   -2.2420 C   0  0  0  0  0  0  0  0  0  0  0  0
    1.9320   -1.0160   -1.5280 N   0  0  0  0  0  0  0  0  0  0  0  0
    1.3650   -2.1060   -2.3120 C   0  0  0  0  0  0  0  0  0  0  0  0
    0.2920   -1.6000   -3.2030 C   0  0  0  0  0  0  0  0  0  0  0  0
    1.8850   -1.0360   -0.1120 C   0  0  0  0  0  0  0  0  0  0  0  0
    2.9210   -1.6310    0.6080 C   0  0  0  0  0  0  0  0  0  0  0  0
    2.8780   -1.6520    2.0020 C   0  0  0  0  0  0  0  0  0  0  0  0
    1.8000   -1.0790    2.6760 C   0  0  0  0  0  0  0  0  0  0  0  0
    0.7640   -0.4840    1.9550 C   0  0  0  0  0  0  0  0  0  0  0  0
    0.8070   -0.4630    0.5610 C   0  0  0  0  0  0  0  0  0  0  0  0
   -0.2540    0.1450   -0.1760 N   0  0  0  0  0  0  0  0  0  0  0  0
   -0.1700    1.3620   -0.4560 O   0  5  0  0  0  0  0  0  0  0  0  0
   -1.2300   -0.5600   -0.5170 O   0  5  0  0  0  0  0  0  0  0  0  0
   -0.3270    0.0940    2.6480 N   0  0  0  0  0  0  0  0  0  0  0  0
    1.7820   -1.1170    4.1700 C   0  0  0  0  0  0  0  0  0  0  0  0
    2.8720   -1.7350    4.7110 F   0  0  0  0  0  0  0  0  0  0  0  0
    1.7490    0.1200    4.7450 F   0  0  0  0  0  0  0  0  0  0  0  0
    0.6990   -1.7820    4.6620 F   0  0  0  0  0  0  0  0  0  0  0  0
    4.0350   -2.2240   -0.0510 N   0  0  0  0  0  0  0  0  0  0  0  0
    5.0380   -1.5150   -0.3000 O   0  5  0  0  0  0  0  0  0  0  0  0
    3.9780   -3.4370   -0.3610 O   0  5  0  0  0  0  0  0  0  0  0  0
    4.1610    0.4430   -3.6190 H   0  0  0  0  0  0  0  0  0  0  0  0
    4.4470   -0.8980   -2.4740 H   0  0  0  0  0  0  0  0  0  0  0  0
    3.3240   -1.1060   -3.8300 H   0  0  0  0  0  0  0  0  0  0  0  0
    1.7940    0.5630   -2.8630 H   0  0  0  0  0  0  0  0  0  0  0  0
    2.9080    0.8100   -1.4980 H   0  0  0  0  0  0  0  0  0  0  0  0
    2.1840   -2.5400   -2.8830 H   0  0  0  0  0  0  0  0  0  0  0  0
    0.9850   -2.8380   -1.6020 H   0  0  0  0  0  0  0  0  0  0  0  0
   -0.1430   -2.4090   -3.8000 H   0  0  0  0  0  0  0  0  0  0  0  0
   -0.5000   -1.1070   -2.6300 H   0  0  0  0  0  0  0  0  0  0  0  0
    0.7190   -0.8630   -3.8940 H   0  0  0  0  0  0  0  0  0  0  0  0
    3.6840   -2.1150    2.5680 H   0  0  0  0  0  0  0  0  0  0  0  0
   -1.0390    0.5580    2.1260 H   0  0  0  0  0  0  0  0  0  0  0  0
   -0.3120    0.1080    3.6450 H   0  0  0  0  0  0  0  0  0  0  0  0
  1  2  1  0  0  0  0
  1 23  1  0  0  0  0
  1 24  1  0  0  0  0
  1 25  1  0  0  0  0
  2  3  1  0  0  0  0
  2 26  1  0  0  0  0
  2 27  1  0  0  0  0
  3  4  1  0  0  0  0
  3  6  1  0  0  0  0
  4  5  1  0  0  0  0
  4 28  1  0  0  0  0
  4 29  1  0  0  0  0
  5 30  1  0  0  0  0
  5 31  1  0  0  0  0
  5 32  1  0  0  0  0
  6 11  2  0  0  0  0
  6  7  1  0  0  0  0
  7  8  2  0  0  0  0
  7 20  1  0  0  0  0
  8  9  1  0  0  0  0
  8 33  1  0  0  0  0
  9 10  2  0  0  0  0
  9 16  1  0  0  0  0
 10 11  1  0  0  0  0
 10 15  1  0  0  0  0
 11 12  1  0  0  0  0
 12 13  2  0  0  0  0
 12 14  2  0  0  0  0
 15 34  1  0  0  0  0
 15 35  1  0  0  0  0
 16 17  1  0  0  0  0
 16 18  1  0  0  0  0
 16 19  1  0  0  0  0
 20 21  2  0  0  0  0
 20 22  2  0  0  0  0
M  CHG  4  13  -1  14  -1  21  -1  22  -1
M  END
>  <COMPND>
    mobley_5076071 

>  <AUTHOR>
    GENERATED BY OPEN BABEL 2.3.2

>  <MASTER>
        0    0    0    0    0    0    0    0   35    0   35    0

$$$$
