mobley_3775790.pdb
 OpenBabel09222014463D

 13 13  0  0  0  0  0  0  0  0999 V2000
   -0.2320   -0.5270    4.5820 C   0  0  0  0  0  0  0  0  0  0  0  0
    0.2320   -0.2130    3.2490 N   0  0  0  0  0  0  0  0  0  0  0  0
   -0.4890   -0.3990    2.0980 C   0  0  0  0  0  0  0  0  0  0  0  0
    0.2890    0.0200    1.0410 C   0  0  0  0  0  0  0  0  0  0  0  0
    1.5200    0.4730    1.5760 C   0  0  0  0  0  0  0  0  0  0  0  0
    1.4580    0.3170    2.9430 C   0  0  0  0  0  0  0  0  0  0  0  0
   -0.7320    0.3580    4.9820 H   0  0  0  0  0  0  0  0  0  0  0  0
   -0.9250   -1.3710    4.5370 H   0  0  0  0  0  0  0  0  0  0  0  0
    0.6240   -0.8000    5.2070 H   0  0  0  0  0  0  0  0  0  0  0  0
   -1.4890   -0.8110    2.1250 H   0  0  0  0  0  0  0  0  0  0  0  0
    0.0000    0.0000    0.0000 H   0  0  0  0  0  0  0  0  0  0  0  0
    2.3610    0.8700    1.0260 H   0  0  0  0  0  0  0  0  0  0  0  0
    2.1790    0.5390    3.7170 H   0  0  0  0  0  0  0  0  0  0  0  0
  1  2  1  0  0  0  0
  1  7  1  0  0  0  0
  1  8  1  0  0  0  0
  1  9  1  0  0  0  0
  2  6  1  0  0  0  0
  2  3  1  0  0  0  0
  3  4  2  0  0  0  0
  3 10  1  0  0  0  0
  4  5  1  0  0  0  0
  4 11  1  0  0  0  0
  5  6  2  0  0  0  0
  5 12  1  0  0  0  0
  6 13  1  0  0  0  0
M  END
>  <COMPND>
    mobley_3775790 

>  <AUTHOR>
    GENERATED BY OPEN BABEL 2.3.2

>  <MASTER>
        0    0    0    0    0    0    0    0   13    0   13    0

$$$$
