mobley_2501588.pdb
 OpenBabel09222014463D

 40 41  0  0  0  0  0  0  0  0999 V2000
    0.4600    2.4600   -9.1200 C   0  0  0  0  0  0  0  0  0  0  0  0
    1.6660    1.8290   -8.4410 C   0  0  0  0  0  0  0  0  0  0  0  0
    1.3570    1.3350   -7.0320 C   0  0  0  0  0  0  0  0  0  0  0  0
    2.5010    0.7400   -6.3970 N   0  0  0  0  0  0  0  0  0  0  0  0
    3.6980    1.5610   -6.1860 C   0  0  0  0  0  0  0  0  0  0  0  0
    3.3680    2.7330   -5.3450 C   0  0  0  0  0  0  0  0  0  0  0  0
    3.3390    4.1200   -5.9390 C   0  0  0  0  0  0  0  0  0  0  0  0
    4.4320    3.7380   -4.9800 C   0  0  0  0  0  0  0  0  0  0  0  0
    2.4930   -0.5970   -5.9650 C   0  0  0  0  0  0  0  0  0  0  0  0
    2.0730   -0.9100   -4.6730 C   0  0  0  0  0  0  0  0  0  0  0  0
    2.0650   -2.2370   -4.2440 C   0  0  0  0  0  0  0  0  0  0  0  0
    2.4780   -3.2520   -5.1080 C   0  0  0  0  0  0  0  0  0  0  0  0
    2.8970   -2.9390   -6.4010 C   0  0  0  0  0  0  0  0  0  0  0  0
    2.9050   -1.6110   -6.8290 C   0  0  0  0  0  0  0  0  0  0  0  0
    3.3390   -1.3230   -8.1540 N   0  0  0  0  0  0  0  0  0  0  0  0
    4.5530   -1.0890   -8.3550 O   0  5  0  0  0  0  0  0  0  0  0  0
    2.4920   -1.3110   -9.0780 O   0  5  0  0  0  0  0  0  0  0  0  0
    2.4690   -4.6710   -4.6490 C   0  0  0  0  0  0  0  0  0  0  0  0
    2.0340   -4.8290   -3.3640 F   0  0  0  0  0  0  0  0  0  0  0  0
    1.6650   -5.4830   -5.3990 F   0  0  0  0  0  0  0  0  0  0  0  0
    3.7070   -5.2430   -4.6900 F   0  0  0  0  0  0  0  0  0  0  0  0
    1.6460    0.1030   -3.7680 N   0  0  0  0  0  0  0  0  0  0  0  0
    0.4340    0.4220   -3.7460 O   0  5  0  0  0  0  0  0  0  0  0  0
    2.4950    0.6450   -3.0230 O   0  5  0  0  0  0  0  0  0  0  0  0
    0.7130    2.8040  -10.1280 H   0  0  0  0  0  0  0  0  0  0  0  0
   -0.3500    1.7280   -9.2060 H   0  0  0  0  0  0  0  0  0  0  0  0
    0.0810    3.3130   -8.5500 H   0  0  0  0  0  0  0  0  0  0  0  0
    2.4680    2.5740   -8.3860 H   0  0  0  0  0  0  0  0  0  0  0  0
    2.0350    1.0000   -9.0570 H   0  0  0  0  0  0  0  0  0  0  0  0
    1.0410    2.1730   -6.4030 H   0  0  0  0  0  0  0  0  0  0  0  0
    0.5530    0.5920   -7.0390 H   0  0  0  0  0  0  0  0  0  0  0  0
    4.4290    0.9150   -5.7100 H   0  0  0  0  0  0  0  0  0  0  0  0
    4.0440    1.8510   -7.1730 H   0  0  0  0  0  0  0  0  0  0  0  0
    2.6240    2.5050   -4.5870 H   0  0  0  0  0  0  0  0  0  0  0  0
    3.6010    4.2300   -6.9840 H   0  0  0  0  0  0  0  0  0  0  0  0
    2.5830    4.8120   -5.5900 H   0  0  0  0  0  0  0  0  0  0  0  0
    5.4270    3.5930   -5.3820 H   0  0  0  0  0  0  0  0  0  0  0  0
    4.4080    4.1760   -3.9900 H   0  0  0  0  0  0  0  0  0  0  0  0
    1.7380   -2.4870   -3.2370 H   0  0  0  0  0  0  0  0  0  0  0  0
    3.2190   -3.7340   -7.0700 H   0  0  0  0  0  0  0  0  0  0  0  0
  1  2  1  0  0  0  0
  1 25  1  0  0  0  0
  1 26  1  0  0  0  0
  1 27  1  0  0  0  0
  2  3  1  0  0  0  0
  2 28  1  0  0  0  0
  2 29  1  0  0  0  0
  3  4  1  0  0  0  0
  3 30  1  0  0  0  0
  3 31  1  0  0  0  0
  4  5  1  0  0  0  0
  4  9  1  0  0  0  0
  5  6  1  0  0  0  0
  5 32  1  0  0  0  0
  5 33  1  0  0  0  0
  6  8  1  0  0  0  0
  6  7  1  0  0  0  0
  6 34  1  0  0  0  0
  7  8  1  0  0  0  0
  7 35  1  0  0  0  0
  7 36  1  0  0  0  0
  8 37  1  0  0  0  0
  8 38  1  0  0  0  0
  9 14  2  0  0  0  0
  9 10  1  0  0  0  0
 10 11  2  0  0  0  0
 10 22  1  0  0  0  0
 11 12  1  0  0  0  0
 11 39  1  0  0  0  0
 12 13  2  0  0  0  0
 12 18  1  0  0  0  0
 13 14  1  0  0  0  0
 13 40  1  0  0  0  0
 14 15  1  0  0  0  0
 15 16  2  0  0  0  0
 15 17  2  0  0  0  0
 18 19  1  0  0  0  0
 18 20  1  0  0  0  0
 18 21  1  0  0  0  0
 22 23  2  0  0  0  0
 22 24  2  0  0  0  0
M  CHG  4  16  -1  17  -1  23  -1  24  -1
M  END
>  <COMPND>
    mobley_2501588 

>  <AUTHOR>
    GENERATED BY OPEN BABEL 2.3.2

>  <MASTER>
        0    0    0    0    0    0    0    0   40    0   40    0

$$$$
