mobley_3274817.pdb
 OpenBabel09222014463D

 29 29  0  0  1  0  0  0  0  0999 V2000
   -0.1700    3.0590    2.3980 C   0  0  0  0  0  0  0  0  0  0  0  0
    0.0340    1.6080    1.9790 C   0  0  0  0  0  0  0  0  0  0  0  0
   -0.9890    0.6450    2.6150 C   0  0  1  0  0  0  0  0  0  0  0  0
   -1.9880    0.9680    2.2940 H   0  0  0  0  0  0  0  0  0  0  0  0
   -0.7900   -0.7770    2.0760 C   0  0  0  0  0  0  0  0  0  0  0  0
   -0.9440    0.6410    4.1340 C   0  0  0  0  0  0  0  0  0  0  0  0
    0.2380    0.2780    4.7790 C   0  0  0  0  0  0  0  0  0  0  0  0
    0.2990    0.2710    6.1720 C   0  0  0  0  0  0  0  0  0  0  0  0
   -0.8240    0.6260    6.9210 C   0  0  0  0  0  0  0  0  0  0  0  0
   -2.0060    0.9880    6.2760 C   0  0  0  0  0  0  0  0  0  0  0  0
   -2.0660    0.9960    4.8820 C   0  0  0  0  0  0  0  0  0  0  0  0
   -3.2190    1.3520    4.2440 O   0  0  0  0  0  0  0  0  0  0  0  0
   -3.1400    1.3470    7.0560 N   0  0  0  0  0  0  0  0  0  0  0  0
   -3.9490    0.4520    7.3970 O   0  5  0  0  0  0  0  0  0  0  0  0
   -3.2960    2.5480    7.3810 O   0  5  0  0  0  0  0  0  0  0  0  0
    1.5020   -0.1010    6.8290 N   0  0  0  0  0  0  0  0  0  0  0  0
    1.5340   -0.1020    8.0830 O   0  5  0  0  0  0  0  0  0  0  0  0
    2.4990   -0.4190    6.1370 O   0  5  0  0  0  0  0  0  0  0  0  0
    0.5800    3.6970    1.9190 H   0  0  0  0  0  0  0  0  0  0  0  0
   -1.1570    3.4280    2.1030 H   0  0  0  0  0  0  0  0  0  0  0  0
   -0.0680    3.1730    3.4820 H   0  0  0  0  0  0  0  0  0  0  0  0
    0.0060    1.5440    0.8850 H   0  0  0  0  0  0  0  0  0  0  0  0
    1.0450    1.3080    2.2830 H   0  0  0  0  0  0  0  0  0  0  0  0
   -1.5040   -1.4840    2.5120 H   0  0  0  0  0  0  0  0  0  0  0  0
   -0.9220   -0.7990    0.9890 H   0  0  0  0  0  0  0  0  0  0  0  0
    0.2200   -1.1430    2.2970 H   0  0  0  0  0  0  0  0  0  0  0  0
    1.1120    0.0020    4.1920 H   0  0  0  0  0  0  0  0  0  0  0  0
   -0.7760    0.6200    8.0080 H   0  0  0  0  0  0  0  0  0  0  0  0
   -3.9040    1.5720    4.8940 H   0  0  0  0  0  0  0  0  0  0  0  0
  1  2  1  0  0  0  0
  1 19  1  0  0  0  0
  1 20  1  0  0  0  0
  1 21  1  0  0  0  0
  2  3  1  0  0  0  0
  2 22  1  0  0  0  0
  2 23  1  0  0  0  0
  3  4  1  6  0  0  0
  3  5  1  0  0  0  0
  3  6  1  0  0  0  0
  5 24  1  0  0  0  0
  5 25  1  0  0  0  0
  5 26  1  0  0  0  0
  6 11  2  0  0  0  0
  6  7  1  0  0  0  0
  7  8  2  0  0  0  0
  7 27  1  0  0  0  0
  8  9  1  0  0  0  0
  8 16  1  0  0  0  0
  9 10  2  0  0  0  0
  9 28  1  0  0  0  0
 10 11  1  0  0  0  0
 10 13  1  0  0  0  0
 11 12  1  0  0  0  0
 12 29  1  0  0  0  0
 13 14  2  0  0  0  0
 13 15  2  0  0  0  0
 16 17  2  0  0  0  0
 16 18  2  0  0  0  0
M  CHG  4  14  -1  15  -1  17  -1  18  -1
M  END
>  <COMPND>
    mobley_3274817 

>  <AUTHOR>
    GENERATED BY OPEN BABEL 2.3.2

>  <MASTER>
        0    0    0    0    0    0    0    0   29    0   29    0

$$$$
