mobley_6353617.pdb
 OpenBabel09222014463D

 16 16  0  0  0  0  0  0  0  0999 V2000
    3.4280   -1.3160    4.5410 C   0  0  0  0  0  0  0  0  0  0  0  0
    2.8570   -0.2750    3.6320 C   0  0  0  0  0  0  0  0  0  0  0  0
    3.4280    0.8080    3.5570 O   0  0  0  0  0  0  0  0  0  0  0  0
    1.6520   -0.6230    2.9000 C   0  0  0  0  0  0  0  0  0  0  0  0
    1.3880   -0.0680    1.6520 C   0  0  0  0  0  0  0  0  0  0  0  0
    0.2270   -0.4200    0.9730 C   0  0  0  0  0  0  0  0  0  0  0  0
   -0.6320   -1.3220    1.5800 C   0  0  0  0  0  0  0  0  0  0  0  0
   -0.4090   -1.8820    2.7910 N   0  0  0  0  0  0  0  0  0  0  0  0
    0.7300   -1.5160    3.4210 C   0  0  0  0  0  0  0  0  0  0  0  0
    3.0360   -1.2800    5.5700 H   0  0  0  0  0  0  0  0  0  0  0  0
    4.5270   -1.2830    4.6050 H   0  0  0  0  0  0  0  0  0  0  0  0
    3.2020   -2.3450    4.2100 H   0  0  0  0  0  0  0  0  0  0  0  0
    2.0800    0.6370    1.2000 H   0  0  0  0  0  0  0  0  0  0  0  0
   -0.0010    0.0000    0.0000 H   0  0  0  0  0  0  0  0  0  0  0  0
   -1.5510   -1.6290    1.0920 H   0  0  0  0  0  0  0  0  0  0  0  0
    0.8810   -1.9810    4.3900 H   0  0  0  0  0  0  0  0  0  0  0  0
  1  2  1  0  0  0  0
  1 10  1  0  0  0  0
  1 11  1  0  0  0  0
  1 12  1  0  0  0  0
  2  3  2  0  0  0  0
  2  4  1  0  0  0  0
  4  9  2  0  0  0  0
  4  5  1  0  0  0  0
  5  6  2  0  0  0  0
  5 13  1  0  0  0  0
  6  7  1  0  0  0  0
  6 14  1  0  0  0  0
  7  8  2  0  0  0  0
  7 15  1  0  0  0  0
  8  9  1  0  0  0  0
  9 16  1  0  0  0  0
M  END
>  <COMPND>
    mobley_6353617 

>  <AUTHOR>
    GENERATED BY OPEN BABEL 2.3.2

>  <MASTER>
        0    0    0    0    0    0    0    0   16    0   16    0

$$$$
