mobley_7532833.pdb
 OpenBabel09222014463D

  6  5  0  0  0  0  0  0  0  0999 V2000
    0.4480    0.2840    0.9570 C   0  0  0  0  0  0  0  0  0  0  0  0
   -0.2060    1.4710    1.5040 C   0  0  0  0  0  0  0  0  0  0  0  0
   -0.7250    2.4140    1.9390 N   0  0  0  0  0  0  0  0  0  0  0  0
   -0.2830   -0.5070    0.7620 H   0  0  0  0  0  0  0  0  0  0  0  0
    1.1930   -0.1070    1.6570 H   0  0  0  0  0  0  0  0  0  0  0  0
    0.9550    0.5180    0.0160 H   0  0  0  0  0  0  0  0  0  0  0  0
  1  2  1  0  0  0  0
  1  4  1  0  0  0  0
  1  5  1  0  0  0  0
  1  6  1  0  0  0  0
  2  3  3  0  0  0  0
M  END
>  <COMPND>
    mobley_7532833 

>  <AUTHOR>
    GENERATED BY OPEN BABEL 2.3.2

>  <MASTER>
        0    0    0    0    0    0    0    0    6    0    6    0

$$$$
