mobley_4964807.pdb
 OpenBabel09222014463D

 13 12  0  0  0  0  0  0  0  0999 V2000
   -0.4710    0.2910   -0.9330 C   0  0  0  0  0  0  0  0  0  0  0  0
   -1.7470    1.0400   -0.6550 C   0  0  0  0  0  0  0  0  0  0  0  0
   -1.9070    2.1960   -1.0420 O   0  0  0  0  0  0  0  0  0  0  0  0
   -2.8080    0.2890    0.1210 C   0  0  0  0  0  0  0  0  0  0  0  0
   -3.9500    1.0980    0.3140 O   0  0  0  0  0  0  0  0  0  0  0  0
   -4.9960    0.4570    1.0410 N   0  0  0  0  0  0  0  0  0  0  0  0
   -4.7970   -0.7030    1.4120 O   0  5  0  0  0  0  0  0  0  0  0  0
   -5.9850    1.1730    1.2030 O   0  5  0  0  0  0  0  0  0  0  0  0
    0.2400    0.4580   -0.1190 H   0  0  0  0  0  0  0  0  0  0  0  0
   -0.6810   -0.7780   -1.0040 H   0  0  0  0  0  0  0  0  0  0  0  0
   -0.0300    0.6520   -1.8660 H   0  0  0  0  0  0  0  0  0  0  0  0
   -2.4120   -0.0100    1.0950 H   0  0  0  0  0  0  0  0  0  0  0  0
   -3.1040   -0.5970   -0.4450 H   0  0  0  0  0  0  0  0  0  0  0  0
  1  2  1  0  0  0  0
  1  9  1  0  0  0  0
  1 10  1  0  0  0  0
  1 11  1  0  0  0  0
  2  3  2  0  0  0  0
  2  4  1  0  0  0  0
  4  5  1  0  0  0  0
  4 12  1  0  0  0  0
  4 13  1  0  0  0  0
  5  6  1  0  0  0  0
  6  7  2  0  0  0  0
  6  8  2  0  0  0  0
M  CHG  2   7  -1   8  -1
M  END
>  <COMPND>
    mobley_4964807 

>  <AUTHOR>
    GENERATED BY OPEN BABEL 2.3.2

>  <MASTER>
        0    0    0    0    0    0    0    0   13    0   13    0

$$$$
