mobley_1328936.pdb
 OpenBabel09222014463D

 20 20  0  0  0  0  0  0  0  0999 V2000
    0.5850   -1.0140   -3.5070 C   0  0  0  0  0  0  0  0  0  0  0  0
    0.6730   -1.0320   -2.0780 O   0  0  0  0  0  0  0  0  0  0  0  0
    1.9300   -1.0150   -1.5660 C   0  0  0  0  0  0  0  0  0  0  0  0
    2.9710   -0.9860   -2.2040 O   0  0  0  0  0  0  0  0  0  0  0  0
    1.8850   -1.0360   -0.1120 C   0  0  0  0  0  0  0  0  0  0  0  0
    2.9210   -1.6310    0.6080 C   0  0  0  0  0  0  0  0  0  0  0  0
    2.8780   -1.6520    2.0020 C   0  0  0  0  0  0  0  0  0  0  0  0
    1.8000   -1.0790    2.6760 C   0  0  0  0  0  0  0  0  0  0  0  0
    0.7640   -0.4840    1.9550 C   0  0  0  0  0  0  0  0  0  0  0  0
    0.8070   -0.4630    0.5610 C   0  0  0  0  0  0  0  0  0  0  0  0
    1.7570   -1.1000    4.0950 N   0  0  0  0  0  0  0  0  0  0  0  0
    0.7770   -0.5790    4.6810 O   0  5  0  0  0  0  0  0  0  0  0  0
    2.6990   -1.6390    4.7240 O   0  5  0  0  0  0  0  0  0  0  0  0
   -0.4650   -1.0300   -3.8080 H   0  0  0  0  0  0  0  0  0  0  0  0
    1.1060   -1.8840   -3.9150 H   0  0  0  0  0  0  0  0  0  0  0  0
    1.0550   -0.1020   -3.8810 H   0  0  0  0  0  0  0  0  0  0  0  0
    3.7660   -2.0800    0.0930 H   0  0  0  0  0  0  0  0  0  0  0  0
    3.6920   -2.1180    2.5520 H   0  0  0  0  0  0  0  0  0  0  0  0
   -0.0830   -0.0340    2.4670 H   0  0  0  0  0  0  0  0  0  0  0  0
   -0.0070    0.0020    0.0090 H   0  0  0  0  0  0  0  0  0  0  0  0
  1  2  1  0  0  0  0
  1 14  1  0  0  0  0
  1 15  1  0  0  0  0
  1 16  1  0  0  0  0
  2  3  1  0  0  0  0
  3  4  2  0  0  0  0
  3  5  1  0  0  0  0
  5 10  2  0  0  0  0
  5  6  1  0  0  0  0
  6  7  2  0  0  0  0
  6 17  1  0  0  0  0
  7  8  1  0  0  0  0
  7 18  1  0  0  0  0
  8  9  2  0  0  0  0
  8 11  1  0  0  0  0
  9 10  1  0  0  0  0
  9 19  1  0  0  0  0
 10 20  1  0  0  0  0
 11 12  2  0  0  0  0
 11 13  2  0  0  0  0
M  CHG  2  12  -1  13  -1
M  END
>  <COMPND>
    mobley_1328936 

>  <AUTHOR>
    GENERATED BY OPEN BABEL 2.3.2

>  <MASTER>
        0    0    0    0    0    0    0    0   20    0   20    0

$$$$
