mobley_3639400.pdb
 OpenBabel09222014463D

 14 13  0  0  0  0  0  0  0  0999 V2000
   -0.1170    0.5380    0.9460 C   0  0  0  0  0  0  0  0  0  0  0  0
    0.5890   -0.2070    2.0670 C   0  0  0  0  0  0  0  0  0  0  0  0
    0.4430    0.5210    3.4030 C   0  0  0  0  0  0  0  0  0  0  0  0
    1.1540   -0.2330    4.5190 C   0  0  0  0  0  0  0  0  0  0  0  0
    0.9730    0.6280    6.0640 Cl  0  0  0  0  0  0  0  0  0  0  0  0
   -0.0070    0.0100   -0.0070 H   0  0  0  0  0  0  0  0  0  0  0  0
   -1.1860    0.6260    1.1640 H   0  0  0  0  0  0  0  0  0  0  0  0
    0.2900    1.5480    0.8280 H   0  0  0  0  0  0  0  0  0  0  0  0
    1.6510   -0.3130    1.8150 H   0  0  0  0  0  0  0  0  0  0  0  0
    0.1720   -1.2180    2.1460 H   0  0  0  0  0  0  0  0  0  0  0  0
    0.8580    1.5330    3.3150 H   0  0  0  0  0  0  0  0  0  0  0  0
   -0.6220    0.6280    3.6460 H   0  0  0  0  0  0  0  0  0  0  0  0
    2.2250   -0.3260    4.3140 H   0  0  0  0  0  0  0  0  0  0  0  0
    0.7350   -1.2360    4.6470 H   0  0  0  0  0  0  0  0  0  0  0  0
  1  2  1  0  0  0  0
  1  6  1  0  0  0  0
  1  7  1  0  0  0  0
  1  8  1  0  0  0  0
  2  3  1  0  0  0  0
  2  9  1  0  0  0  0
  2 10  1  0  0  0  0
  3  4  1  0  0  0  0
  3 11  1  0  0  0  0
  3 12  1  0  0  0  0
  4  5  1  0  0  0  0
  4 13  1  0  0  0  0
  4 14  1  0  0  0  0
M  END
>  <COMPND>
    mobley_3639400 

>  <AUTHOR>
    GENERATED BY OPEN BABEL 2.3.2

>  <MASTER>
        0    0    0    0    0    0    0    0   14    0   14    0

$$$$
