mobley_9197172.pdb
 OpenBabel09222014463D

 24 23  0  0  0  0  0  0  0  0999 V2000
   -2.7370   -2.8290   -1.0110 C   0  0  0  0  0  0  0  0  0  0  0  0
   -1.4790   -2.0360   -1.3270 C   0  0  0  0  0  0  0  0  0  0  0  0
   -1.1010   -1.1040   -0.1750 C   0  0  0  0  0  0  0  0  0  0  0  0
    0.1650   -0.3080   -0.4960 C   0  0  0  0  0  0  0  0  0  0  0  0
    0.5440    0.6240    0.6560 C   0  0  0  0  0  0  0  0  0  0  0  0
    1.8110    1.4200    0.3330 C   0  0  0  0  0  0  0  0  0  0  0  0
    2.1820    2.3340    1.4630 C   0  0  0  0  0  0  0  0  0  0  0  0
    2.2710    3.6640    1.3510 C   0  0  0  0  0  0  0  0  0  0  0  0
   -2.9890   -3.4880   -1.8480 H   0  0  0  0  0  0  0  0  0  0  0  0
   -2.5970   -3.4490   -0.1200 H   0  0  0  0  0  0  0  0  0  0  0  0
   -3.5870   -2.1620   -0.8360 H   0  0  0  0  0  0  0  0  0  0  0  0
   -0.6560   -2.7320   -1.5280 H   0  0  0  0  0  0  0  0  0  0  0  0
   -1.6410   -1.4520   -2.2400 H   0  0  0  0  0  0  0  0  0  0  0  0
   -1.9290   -0.4130    0.0250 H   0  0  0  0  0  0  0  0  0  0  0  0
   -0.9440   -1.6920    0.7370 H   0  0  0  0  0  0  0  0  0  0  0  0
    0.0080    0.2800   -1.4090 H   0  0  0  0  0  0  0  0  0  0  0  0
    0.9930   -1.0000   -0.6960 H   0  0  0  0  0  0  0  0  0  0  0  0
   -0.2850    1.3140    0.8560 H   0  0  0  0  0  0  0  0  0  0  0  0
    0.6970    0.0340    1.5690 H   0  0  0  0  0  0  0  0  0  0  0  0
    1.6630    1.9880   -0.5930 H   0  0  0  0  0  0  0  0  0  0  0  0
    2.6460    0.7320    0.1550 H   0  0  0  0  0  0  0  0  0  0  0  0
    2.4000    1.8770    2.4250 H   0  0  0  0  0  0  0  0  0  0  0  0
    2.5490    4.2700    2.2060 H   0  0  0  0  0  0  0  0  0  0  0  0
    2.0680    4.1690    0.4130 H   0  0  0  0  0  0  0  0  0  0  0  0
  1  2  1  0  0  0  0
  1  9  1  0  0  0  0
  1 10  1  0  0  0  0
  1 11  1  0  0  0  0
  2  3  1  0  0  0  0
  2 12  1  0  0  0  0
  2 13  1  0  0  0  0
  3  4  1  0  0  0  0
  3 14  1  0  0  0  0
  3 15  1  0  0  0  0
  4  5  1  0  0  0  0
  4 16  1  0  0  0  0
  4 17  1  0  0  0  0
  5  6  1  0  0  0  0
  5 18  1  0  0  0  0
  5 19  1  0  0  0  0
  6  7  1  0  0  0  0
  6 20  1  0  0  0  0
  6 21  1  0  0  0  0
  7  8  2  0  0  0  0
  7 22  1  0  0  0  0
  8 23  1  0  0  0  0
  8 24  1  0  0  0  0
M  END
>  <COMPND>
    mobley_9197172 

>  <AUTHOR>
    GENERATED BY OPEN BABEL 2.3.2

>  <MASTER>
        0    0    0    0    0    0    0    0   24    0   24    0

$$$$
