mobley_3264884.pdb
 OpenBabel09222014463D

 20 21  0  0  0  0  0  0  0  0999 V2000
   -0.4970   -2.0340    0.4940 C   0  0  0  0  0  0  0  0  0  0  0  0
    0.3500   -1.0280    0.0390 C   0  0  0  0  0  0  0  0  0  0  0  0
    1.6480   -1.3370   -0.3660 C   0  0  0  0  0  0  0  0  0  0  0  0
    2.1170   -2.6600   -0.3220 C   0  0  0  0  0  0  0  0  0  0  0  0
    3.4210   -2.9900   -0.7270 C   0  0  0  0  0  0  0  0  0  0  0  0
    3.8690   -4.3100   -0.6760 C   0  0  0  0  0  0  0  0  0  0  0  0
    3.0230   -5.3170   -0.2210 C   0  0  0  0  0  0  0  0  0  0  0  0
    1.7240   -5.0070    0.1850 C   0  0  0  0  0  0  0  0  0  0  0  0
    1.2560   -3.6840    0.1400 C   0  0  0  0  0  0  0  0  0  0  0  0
   -0.0480   -3.3540    0.5450 C   0  0  0  0  0  0  0  0  0  0  0  0
    5.1820   -4.6240   -1.0850 N   0  0  0  0  0  0  0  0  0  0  0  0
   -1.5080   -1.7930    0.8090 H   0  0  0  0  0  0  0  0  0  0  0  0
    0.0000    0.0000    0.0000 H   0  0  0  0  0  0  0  0  0  0  0  0
    2.2920   -0.5340   -0.7190 H   0  0  0  0  0  0  0  0  0  0  0  0
    4.0920   -2.2100   -1.0840 H   0  0  0  0  0  0  0  0  0  0  0  0
    3.3630   -6.3480   -0.1770 H   0  0  0  0  0  0  0  0  0  0  0  0
    1.0790   -5.8100    0.5370 H   0  0  0  0  0  0  0  0  0  0  0  0
   -0.7270   -4.1250    0.9020 H   0  0  0  0  0  0  0  0  0  0  0  0
    5.7650   -3.9000   -1.4540 H   0  0  0  0  0  0  0  0  0  0  0  0
    5.4760   -5.5800   -1.0890 H   0  0  0  0  0  0  0  0  0  0  0  0
  1 10  2  0  0  0  0
  1  2  1  0  0  0  0
  1 12  1  0  0  0  0
  2  3  2  0  0  0  0
  2 13  1  0  0  0  0
  3  4  1  0  0  0  0
  3 14  1  0  0  0  0
  4  9  2  0  0  0  0
  4  5  1  0  0  0  0
  5  6  2  0  0  0  0
  5 15  1  0  0  0  0
  6  7  1  0  0  0  0
  6 11  1  0  0  0  0
  7  8  2  0  0  0  0
  7 16  1  0  0  0  0
  8  9  1  0  0  0  0
  8 17  1  0  0  0  0
  9 10  1  0  0  0  0
 10 18  1  0  0  0  0
 11 19  1  0  0  0  0
 11 20  1  0  0  0  0
M  END
>  <COMPND>
    mobley_3264884 

>  <AUTHOR>
    GENERATED BY OPEN BABEL 2.3.2

>  <MASTER>
        0    0    0    0    0    0    0    0   20    0   20    0

$$$$
