mobley_6248915.pdb
 OpenBabel09222014463D

 28 27  0  0  0  0  0  0  0  0999 V2000
    4.0830   -1.0330    3.7440 C   0  0  0  0  0  0  0  0  0  0  0  0
    3.4620   -0.0560    2.7590 C   0  0  0  0  0  0  0  0  0  0  0  0
    4.4960    0.4650    1.7600 C   0  0  0  0  0  0  0  0  0  0  0  0
    3.8640    1.4480    0.7710 C   0  0  0  0  0  0  0  0  0  0  0  0
    4.8560    2.0030   -0.2560 C   0  0  0  0  0  0  0  0  0  0  0  0
    4.2830    2.9940   -1.2740 C   0  0  0  0  0  0  0  0  0  0  0  0
    5.3230    3.5130   -2.2720 C   0  0  0  0  0  0  0  0  0  0  0  0
    4.7300    4.4970   -3.2760 C   0  0  0  0  0  0  0  0  0  0  0  0
    5.7060    4.9830   -4.2120 N   0  0  0  0  0  0  0  0  0  0  0  0
    3.3270   -1.3930    4.4490 H   0  0  0  0  0  0  0  0  0  0  0  0
    4.5030   -1.9000    3.2240 H   0  0  0  0  0  0  0  0  0  0  0  0
    4.8830   -0.5550    4.3190 H   0  0  0  0  0  0  0  0  0  0  0  0
    3.0230    0.7820    3.3120 H   0  0  0  0  0  0  0  0  0  0  0  0
    2.6460   -0.5540    2.2230 H   0  0  0  0  0  0  0  0  0  0  0  0
    5.3120    0.9600    2.3000 H   0  0  0  0  0  0  0  0  0  0  0  0
    4.9300   -0.3840    1.2200 H   0  0  0  0  0  0  0  0  0  0  0  0
    3.0200    0.9710    0.2600 H   0  0  0  0  0  0  0  0  0  0  0  0
    3.4450    2.2960    1.3280 H   0  0  0  0  0  0  0  0  0  0  0  0
    5.6790    2.4880    0.2850 H   0  0  0  0  0  0  0  0  0  0  0  0
    5.3030    1.1650   -0.8040 H   0  0  0  0  0  0  0  0  0  0  0  0
    3.8130    3.8370   -0.7550 H   0  0  0  0  0  0  0  0  0  0  0  0
    3.4790    2.4830   -1.8180 H   0  0  0  0  0  0  0  0  0  0  0  0
    5.7750    2.6670   -2.8040 H   0  0  0  0  0  0  0  0  0  0  0  0
    6.1270    4.0250   -1.7320 H   0  0  0  0  0  0  0  0  0  0  0  0
    4.3300    5.3700   -2.7510 H   0  0  0  0  0  0  0  0  0  0  0  0
    3.9160    4.0400   -3.8470 H   0  0  0  0  0  0  0  0  0  0  0  0
    5.9260    4.4300   -5.0260 H   0  0  0  0  0  0  0  0  0  0  0  0
    6.3000    5.7540   -3.9480 H   0  0  0  0  0  0  0  0  0  0  0  0
  1  2  1  0  0  0  0
  1 10  1  0  0  0  0
  1 11  1  0  0  0  0
  1 12  1  0  0  0  0
  2  3  1  0  0  0  0
  2 13  1  0  0  0  0
  2 14  1  0  0  0  0
  3  4  1  0  0  0  0
  3 15  1  0  0  0  0
  3 16  1  0  0  0  0
  4  5  1  0  0  0  0
  4 17  1  0  0  0  0
  4 18  1  0  0  0  0
  5  6  1  0  0  0  0
  5 19  1  0  0  0  0
  5 20  1  0  0  0  0
  6  7  1  0  0  0  0
  6 21  1  0  0  0  0
  6 22  1  0  0  0  0
  7  8  1  0  0  0  0
  7 23  1  0  0  0  0
  7 24  1  0  0  0  0
  8  9  1  0  0  0  0
  8 25  1  0  0  0  0
  8 26  1  0  0  0  0
  9 27  1  0  0  0  0
  9 28  1  0  0  0  0
M  END
>  <COMPND>
    mobley_6248915 

>  <AUTHOR>
    GENERATED BY OPEN BABEL 2.3.2

>  <MASTER>
        0    0    0    0    0    0    0    0   28    0   28    0

$$$$
