mobley_2837389.pdb
 OpenBabel09222014463D

 10 10  0  0  0  0  0  0  0  0999 V2000
    0.2890    0.0200    1.0410 C   0  0  0  0  0  0  0  0  0  0  0  0
    1.5200    0.4730    1.5760 C   0  0  0  0  0  0  0  0  0  0  0  0
    1.4580    0.3170    2.9430 C   0  0  0  0  0  0  0  0  0  0  0  0
    0.2320   -0.2130    3.2490 N   0  0  0  0  0  0  0  0  0  0  0  0
   -0.4890   -0.3990    2.0980 C   0  0  0  0  0  0  0  0  0  0  0  0
   -0.0010    0.0000    0.0000 H   0  0  0  0  0  0  0  0  0  0  0  0
    2.3610    0.8690    1.0240 H   0  0  0  0  0  0  0  0  0  0  0  0
    2.1730    0.5360    3.7230 H   0  0  0  0  0  0  0  0  0  0  0  0
   -0.0920   -0.4340    4.1810 H   0  0  0  0  0  0  0  0  0  0  0  0
   -1.4870   -0.8130    2.1330 H   0  0  0  0  0  0  0  0  0  0  0  0
  1  5  2  0  0  0  0
  1  2  1  0  0  0  0
  1  6  1  0  0  0  0
  2  3  2  0  0  0  0
  2  7  1  0  0  0  0
  3  4  1  0  0  0  0
  3  8  1  0  0  0  0
  4  5  1  0  0  0  0
  4  9  1  0  0  0  0
  5 10  1  0  0  0  0
M  END
>  <COMPND>
    mobley_2837389 

>  <AUTHOR>
    GENERATED BY OPEN BABEL 2.3.2

>  <MASTER>
        0    0    0    0    0    0    0    0   10    0   10    0

$$$$
