mobley_9185328.pdb
 OpenBabel09222014463D

 13 12  0  0  0  0  0  0  0  0999 V2000
    0.9920    0.0880   -0.4550 C   0  0  0  0  0  0  0  0  0  0  0  0
    1.2280    1.5170   -0.9220 C   0  0  0  0  0  0  0  0  0  0  0  0
    2.6190    1.7220   -1.5110 C   0  0  0  0  0  0  0  0  0  0  0  0
    2.8340    3.0730   -1.9500 N   0  0  0  0  0  0  0  0  0  0  0  0
   -0.0140   -0.0270   -0.0380 H   0  0  0  0  0  0  0  0  0  0  0  0
    1.0900   -0.6050   -1.2970 H   0  0  0  0  0  0  0  0  0  0  0  0
    1.7180   -0.2070    0.3090 H   0  0  0  0  0  0  0  0  0  0  0  0
    1.1030    2.1910   -0.0670 H   0  0  0  0  0  0  0  0  0  0  0  0
    0.4640    1.7860   -1.6610 H   0  0  0  0  0  0  0  0  0  0  0  0
    3.3810    1.5060   -0.7560 H   0  0  0  0  0  0  0  0  0  0  0  0
    2.7900    1.0610   -2.3660 H   0  0  0  0  0  0  0  0  0  0  0  0
    3.1170    3.7700   -1.2780 H   0  0  0  0  0  0  0  0  0  0  0  0
    2.5080    3.3530   -2.8620 H   0  0  0  0  0  0  0  0  0  0  0  0
  1  2  1  0  0  0  0
  1  5  1  0  0  0  0
  1  6  1  0  0  0  0
  1  7  1  0  0  0  0
  2  3  1  0  0  0  0
  2  8  1  0  0  0  0
  2  9  1  0  0  0  0
  3  4  1  0  0  0  0
  3 10  1  0  0  0  0
  3 11  1  0  0  0  0
  4 12  1  0  0  0  0
  4 13  1  0  0  0  0
M  END
>  <COMPND>
    mobley_9185328 

>  <AUTHOR>
    GENERATED BY OPEN BABEL 2.3.2

>  <MASTER>
        0    0    0    0    0    0    0    0   13    0   13    0

$$$$
