mobley_9557440.pdb
 OpenBabel09222014463D

 12 12  0  0  0  0  0  0  0  0999 V2000
    0.1740    0.0040   -1.5030 C   0  0  0  0  0  0  0  0  0  0  0  0
    1.0790   -0.2700   -0.5600 C   0  0  0  0  0  0  0  0  0  0  0  0
    0.6850   -0.2130    0.8720 C   0  0  0  0  0  0  0  0  0  0  0  0
    1.4780   -0.4560    1.7780 O   0  0  0  0  0  0  0  0  0  0  0  0
   -0.6440    0.1360    1.0860 N   0  0  0  0  0  0  0  0  0  0  0  0
   -1.5950    0.4230    0.1020 C   0  0  0  0  0  0  0  0  0  0  0  0
   -2.7580    0.7250    0.3690 O   0  0  0  0  0  0  0  0  0  0  0  0
   -1.1170    0.3390   -1.1980 N   0  0  0  0  0  0  0  0  0  0  0  0
    2.6980   -0.6890   -0.9450 Cl  0  0  0  0  0  0  0  0  0  0  0  0
    0.4030   -0.0210   -2.5620 H   0  0  0  0  0  0  0  0  0  0  0  0
   -0.9560    0.1870    2.0520 H   0  0  0  0  0  0  0  0  0  0  0  0
   -1.7580    0.5360   -1.9620 H   0  0  0  0  0  0  0  0  0  0  0  0
  1  8  1  0  0  0  0
  1  2  2  0  0  0  0
  1 10  1  0  0  0  0
  2  3  1  0  0  0  0
  2  9  1  0  0  0  0
  3  4  2  0  0  0  0
  3  5  1  0  0  0  0
  5  6  1  0  0  0  0
  5 11  1  0  0  0  0
  6  7  2  0  0  0  0
  6  8  1  0  0  0  0
  8 12  1  0  0  0  0
M  END
>  <COMPND>
    mobley_9557440 

>  <AUTHOR>
    GENERATED BY OPEN BABEL 2.3.2

>  <MASTER>
        0    0    0    0    0    0    0    0   12    0   12    0

$$$$
