mobley_2929847.pdb
 OpenBabel09222014463D

 17 16  0  0  0  0  0  0  0  0999 V2000
    0.7430   -1.0140   -0.8460 C   0  0  0  0  0  0  0  0  0  0  0  0
    0.5820   -0.0020    0.2910 C   0  0  0  0  0  0  0  0  0  0  0  0
    1.5850    1.1390    0.1180 C   0  0  0  0  0  0  0  0  0  0  0  0
   -0.8440    0.5570    0.3520 C   0  0  0  0  0  0  0  0  0  0  0  0
   -1.8640   -0.5330    0.5780 C   0  0  0  0  0  0  0  0  0  0  0  0
   -1.8730   -1.2650    1.5600 O   0  0  0  0  0  0  0  0  0  0  0  0
   -2.7600   -0.6360   -0.4340 O   0  0  0  0  0  0  0  0  0  0  0  0
    0.0300   -1.8380   -0.7360 H   0  0  0  0  0  0  0  0  0  0  0  0
    0.5570   -0.5480   -1.8190 H   0  0  0  0  0  0  0  0  0  0  0  0
    1.7520   -1.4400   -0.8590 H   0  0  0  0  0  0  0  0  0  0  0  0
    0.8100   -0.5150    1.2350 H   0  0  0  0  0  0  0  0  0  0  0  0
    1.4840    1.8720    0.9240 H   0  0  0  0  0  0  0  0  0  0  0  0
    1.4360    1.6580   -0.8350 H   0  0  0  0  0  0  0  0  0  0  0  0
    2.6130    0.7600    0.1400 H   0  0  0  0  0  0  0  0  0  0  0  0
   -1.0890    1.1310   -0.5490 H   0  0  0  0  0  0  0  0  0  0  0  0
   -0.9500    1.2590    1.1890 H   0  0  0  0  0  0  0  0  0  0  0  0
   -2.6480    0.0080   -1.1650 H   0  0  0  0  0  0  0  0  0  0  0  0
  1  2  1  0  0  0  0
  1  8  1  0  0  0  0
  1  9  1  0  0  0  0
  1 10  1  0  0  0  0
  2  3  1  0  0  0  0
  2  4  1  0  0  0  0
  2 11  1  0  0  0  0
  3 12  1  0  0  0  0
  3 13  1  0  0  0  0
  3 14  1  0  0  0  0
  4  5  1  0  0  0  0
  4 15  1  0  0  0  0
  4 16  1  0  0  0  0
  5  6  2  0  0  0  0
  5  7  1  0  0  0  0
  7 17  1  0  0  0  0
M  END
>  <COMPND>
    mobley_2929847 

>  <AUTHOR>
    GENERATED BY OPEN BABEL 2.3.2

>  <MASTER>
        0    0    0    0    0    0    0    0   17    0   17    0

$$$$
