mobley_3425174.pdb
 OpenBabel09222014463D

  5  4  0  0  0  0  0  0  0  0999 V2000
   -0.0830    0.0940    0.0190 C   0  0  0  0  0  0  0  0  0  0  0  0
   -1.0260   -0.8620   -0.1830 F   0  0  0  0  0  0  0  0  0  0  0  0
    1.5260   -0.6180   -0.1170 Cl  0  0  0  0  0  0  0  0  0  0  0  0
   -0.2140    0.5130    1.0190 H   0  0  0  0  0  0  0  0  0  0  0  0
   -0.2030    0.8730   -0.7380 H   0  0  0  0  0  0  0  0  0  0  0  0
  1  2  1  0  0  0  0
  1  3  1  0  0  0  0
  1  4  1  0  0  0  0
  1  5  1  0  0  0  0
M  END
>  <COMPND>
    mobley_3425174 

>  <AUTHOR>
    GENERATED BY OPEN BABEL 2.3.2

>  <MASTER>
        0    0    0    0    0    0    0    0    5    0    5    0

$$$$
