mobley_5760563.pdb
 OpenBabel09222014463D

 13 12  0  0  0  0  0  0  0  0999 V2000
    0.9060    0.5940   -0.1920 C   0  0  0  0  0  0  0  0  0  0  0  0
    1.0190    1.5710    0.8310 O   0  0  0  0  0  0  0  0  0  0  0  0
    2.3590    2.5050    0.8880 S   0  0  0  0  0  0  0  0  0  0  0  0
    2.4490    3.2410   -0.3600 O   0  0  0  0  0  0  0  0  0  0  0  0
    3.4630    1.6800    1.3420 O   0  0  0  0  0  0  0  0  0  0  0  0
    1.9980    3.5680    2.0770 O   0  0  0  0  0  0  0  0  0  0  0  0
    2.9500    4.5630    2.4210 C   0  0  0  0  0  0  0  0  0  0  0  0
   -0.0430    0.0620   -0.0860 H   0  0  0  0  0  0  0  0  0  0  0  0
    1.7390   -0.1090   -0.1190 H   0  0  0  0  0  0  0  0  0  0  0  0
    0.9350    1.0910   -1.1640 H   0  0  0  0  0  0  0  0  0  0  0  0
    2.5510    5.1820    3.2270 H   0  0  0  0  0  0  0  0  0  0  0  0
    3.1650    5.1760    1.5440 H   0  0  0  0  0  0  0  0  0  0  0  0
    3.8650    4.0730    2.7580 H   0  0  0  0  0  0  0  0  0  0  0  0
  1  2  1  0  0  0  0
  1  8  1  0  0  0  0
  1  9  1  0  0  0  0
  1 10  1  0  0  0  0
  2  3  1  0  0  0  0
  3  4  2  0  0  0  0
  3  5  2  0  0  0  0
  3  6  1  0  0  0  0
  6  7  1  0  0  0  0
  7 11  1  0  0  0  0
  7 12  1  0  0  0  0
  7 13  1  0  0  0  0
M  END
>  <COMPND>
    mobley_5760563 

>  <AUTHOR>
    GENERATED BY OPEN BABEL 2.3.2

>  <MASTER>
        0    0    0    0    0    0    0    0   13    0   13    0

$$$$
