mobley_8685905.pdb
 OpenBabel09222014463D

  8  7  0  0  1  0  0  0  0  0999 V2000
    0.3330    0.3730   -0.5570 C   0  0  2  0  0  0  0  0  0  0  0  0
    1.4260    0.3700   -0.5610 H   0  0  0  0  0  0  0  0  0  0  0  0
   -0.2240   -0.3060    0.6650 C   0  0  0  0  0  0  0  0  0  0  0  0
    0.1770    0.3020    1.8020 F   0  0  0  0  0  0  0  0  0  0  0  0
    0.1950   -1.5910    0.7190 F   0  0  0  0  0  0  0  0  0  0  0  0
   -1.5740   -0.3230    0.6520 F   0  0  0  0  0  0  0  0  0  0  0  0
   -0.0970    1.6600   -0.5850 F   0  0  0  0  0  0  0  0  0  0  0  0
   -0.2480   -0.5400   -2.1700 Br  0  0  0  0  0  0  0  0  0  0  0  0
  1  2  1  1  0  0  0
  1  3  1  0  0  0  0
  1  7  1  0  0  0  0
  1  8  1  0  0  0  0
  3  4  1  0  0  0  0
  3  5  1  0  0  0  0
  3  6  1  0  0  0  0
M  END
>  <COMPND>
    mobley_8685905 

>  <AUTHOR>
    GENERATED BY OPEN BABEL 2.3.2

>  <MASTER>
        0    0    0    0    0    0    0    0    8    0    8    0

$$$$
