mobley_8320545.pdb
 OpenBabel09222014463D

 10  9  0  0  0  0  0  0  0  0999 V2000
    0.2390    0.2400    1.0420 C   0  0  0  0  0  0  0  0  0  0  0  0
    1.1260   -0.8170    1.6640 C   0  0  0  0  0  0  0  0  0  0  0  0
    2.3770   -0.9040    0.9080 N   0  0  0  0  0  0  0  0  0  0  0  0
    3.3280   -0.1770    1.2590 O   0  5  0  0  0  0  0  0  0  0  0  0
    2.4190   -1.6910   -0.0590 O   0  5  0  0  0  0  0  0  0  0  0  0
   -0.7100    0.3350    1.5820 H   0  0  0  0  0  0  0  0  0  0  0  0
    0.7250    1.2230    1.0450 H   0  0  0  0  0  0  0  0  0  0  0  0
    0.0110   -0.0210    0.0030 H   0  0  0  0  0  0  0  0  0  0  0  0
    0.6540   -1.8020    1.6320 H   0  0  0  0  0  0  0  0  0  0  0  0
    1.3840   -0.5690    2.6970 H   0  0  0  0  0  0  0  0  0  0  0  0
  1  2  1  0  0  0  0
  1  6  1  0  0  0  0
  1  7  1  0  0  0  0
  1  8  1  0  0  0  0
  2  3  1  0  0  0  0
  2  9  1  0  0  0  0
  2 10  1  0  0  0  0
  3  4  2  0  0  0  0
  3  5  2  0  0  0  0
M  CHG  2   4  -1   5  -1
M  END
>  <COMPND>
    mobley_8320545 

>  <AUTHOR>
    GENERATED BY OPEN BABEL 2.3.2

>  <MASTER>
        0    0    0    0    0    0    0    0   10    0   10    0

$$$$
