mobley_4883284.pdb
 OpenBabel09222014463D

 14 14  0  0  0  0  0  0  0  0999 V2000
    1.8850   -1.0360   -0.1120 C   0  0  0  0  0  0  0  0  0  0  0  0
    2.9210   -1.6310    0.6080 C   0  0  0  0  0  0  0  0  0  0  0  0
    2.8780   -1.6520    2.0020 C   0  0  0  0  0  0  0  0  0  0  0  0
    1.8000   -1.0790    2.6760 C   0  0  0  0  0  0  0  0  0  0  0  0
    0.7640   -0.4840    1.9550 C   0  0  0  0  0  0  0  0  0  0  0  0
    0.8070   -0.4630    0.5610 C   0  0  0  0  0  0  0  0  0  0  0  0
    1.7570   -1.1000    4.0850 N   0  0  0  0  0  0  0  0  0  0  0  0
    1.9180   -1.0200   -1.1980 H   0  0  0  0  0  0  0  0  0  0  0  0
    3.7610   -2.0770    0.0840 H   0  0  0  0  0  0  0  0  0  0  0  0
    3.6910   -2.1180    2.5530 H   0  0  0  0  0  0  0  0  0  0  0  0
   -0.0810   -0.0350    2.4700 H   0  0  0  0  0  0  0  0  0  0  0  0
    0.0000    0.0000    0.0000 H   0  0  0  0  0  0  0  0  0  0  0  0
    1.0020   -0.6450    4.5570 H   0  0  0  0  0  0  0  0  0  0  0  0
    2.5280   -1.4880    4.5910 H   0  0  0  0  0  0  0  0  0  0  0  0
  1  6  2  0  0  0  0
  1  2  1  0  0  0  0
  1  8  1  0  0  0  0
  2  3  2  0  0  0  0
  2  9  1  0  0  0  0
  3  4  1  0  0  0  0
  3 10  1  0  0  0  0
  4  5  2  0  0  0  0
  4  7  1  0  0  0  0
  5  6  1  0  0  0  0
  5 11  1  0  0  0  0
  6 12  1  0  0  0  0
  7 13  1  0  0  0  0
  7 14  1  0  0  0  0
M  END
>  <COMPND>
    mobley_4883284 

>  <AUTHOR>
    GENERATED BY OPEN BABEL 2.3.2

>  <MASTER>
        0    0    0    0    0    0    0    0   14    0   14    0

$$$$
