mobley_6190089.pdb
 OpenBabel09222014463D

  8  7  0  0  0  0  0  0  0  0999 V2000
    0.1760   -0.6790    0.3270 C   0  0  0  0  0  0  0  0  0  0  0  0
   -0.0500    0.7540   -0.1660 C   0  0  0  0  0  0  0  0  0  0  0  0
   -0.3090    0.8600   -1.9300 Cl  0  0  0  0  0  0  0  0  0  0  0  0
   -1.4290    1.5170    0.6780 Cl  0  0  0  0  0  0  0  0  0  0  0  0
   -1.1970   -1.7680   -0.0180 Cl  0  0  0  0  0  0  0  0  0  0  0  0
    1.6670   -1.3740   -0.3720 Cl  0  0  0  0  0  0  0  0  0  0  0  0
    0.3170   -0.6850    1.4120 H   0  0  0  0  0  0  0  0  0  0  0  0
    0.8250    1.3720    0.0610 H   0  0  0  0  0  0  0  0  0  0  0  0
  1  2  1  0  0  0  0
  1  5  1  0  0  0  0
  1  6  1  0  0  0  0
  1  7  1  0  0  0  0
  2  3  1  0  0  0  0
  2  4  1  0  0  0  0
  2  8  1  0  0  0  0
M  END
>  <COMPND>
    mobley_6190089 

>  <AUTHOR>
    GENERATED BY OPEN BABEL 2.3.2

>  <MASTER>
        0    0    0    0    0    0    0    0    8    0    8    0

$$$$
