mobley_1838110.pdb
 OpenBabel09222014463D

  8  7  0  0  0  0  0  0  0  0999 V2000
   -0.6020    0.0910    0.4860 C   0  0  0  0  0  0  0  0  0  0  0  0
    0.4990   -0.1460   -0.5420 C   0  0  0  0  0  0  0  0  0  0  0  0
   -0.0660   -0.7830   -1.6080 F   0  0  0  0  0  0  0  0  0  0  0  0
    1.7890   -1.1970    0.0980 Cl  0  0  0  0  0  0  0  0  0  0  0  0
    1.1980    1.3840   -1.1300 Cl  0  0  0  0  0  0  0  0  0  0  0  0
   -1.1240   -1.1060    0.8660 F   0  0  0  0  0  0  0  0  0  0  0  0
   -1.6210    0.7750   -0.0990 F   0  0  0  0  0  0  0  0  0  0  0  0
   -0.0720    0.9730    1.9340 Cl  0  0  0  0  0  0  0  0  0  0  0  0
  1  2  1  0  0  0  0
  1  6  1  0  0  0  0
  1  7  1  0  0  0  0
  1  8  1  0  0  0  0
  2  3  1  0  0  0  0
  2  4  1  0  0  0  0
  2  5  1  0  0  0  0
M  END
>  <COMPND>
    mobley_1838110 

>  <AUTHOR>
    GENERATED BY OPEN BABEL 2.3.2

>  <MASTER>
        0    0    0    0    0    0    0    0    8    0    8    0

$$$$
