mobley_5006685.pdb
 OpenBabel09222014463D

 25 25  0  0  1  0  0  0  0  0999 V2000
    5.8420   -2.3170   -2.6940 C   0  0  0  0  0  0  0  0  0  0  0  0
    5.7460   -0.8210   -2.6400 C   0  0  0  0  0  0  0  0  0  0  0  0
    6.7970   -0.0320   -2.9060 C   0  0  0  0  0  0  0  0  0  0  0  0
    4.4080   -0.2590   -2.2720 C   0  0  1  0  0  0  0  0  0  0  0  0
    4.5010    0.8350   -2.2760 H   0  0  0  0  0  0  0  0  0  0  0  0
    3.3360   -0.6550   -3.2970 C   0  0  0  0  0  0  0  0  0  0  0  0
    1.9790   -0.0350   -2.9460 C   0  0  0  0  0  0  0  0  0  0  0  0
    1.6550   -0.1450   -1.4870 C   0  0  0  0  0  0  0  0  0  0  0  0
    2.5540   -0.4610   -0.5440 C   0  0  0  0  0  0  0  0  0  0  0  0
    4.0030   -0.7090   -0.8570 C   0  0  0  0  0  0  0  0  0  0  0  0
    0.2720    0.0840   -1.0610 C   0  0  0  0  0  0  0  0  0  0  0  0
   -0.6240    0.3600   -1.8490 O   0  0  0  0  0  0  0  0  0  0  0  0
    6.1320   -2.7140   -1.7160 H   0  0  0  0  0  0  0  0  0  0  0  0
    4.8760   -2.7500   -2.9740 H   0  0  0  0  0  0  0  0  0  0  0  0
    6.5840   -2.6560   -3.4250 H   0  0  0  0  0  0  0  0  0  0  0  0
    6.7170    1.0490   -2.8640 H   0  0  0  0  0  0  0  0  0  0  0  0
    7.7630   -0.4490   -3.1720 H   0  0  0  0  0  0  0  0  0  0  0  0
    3.6260   -0.3350   -4.3060 H   0  0  0  0  0  0  0  0  0  0  0  0
    3.2380   -1.7490   -3.3300 H   0  0  0  0  0  0  0  0  0  0  0  0
    1.9800    1.0260   -3.2260 H   0  0  0  0  0  0  0  0  0  0  0  0
    1.2040   -0.5260   -3.5460 H   0  0  0  0  0  0  0  0  0  0  0  0
    2.2600   -0.5520    0.4980 H   0  0  0  0  0  0  0  0  0  0  0  0
    4.6190   -0.1780   -0.1200 H   0  0  0  0  0  0  0  0  0  0  0  0
    4.1990   -1.7800   -0.7200 H   0  0  0  0  0  0  0  0  0  0  0  0
    0.0950   -0.0100    0.0230 H   0  0  0  0  0  0  0  0  0  0  0  0
  1  2  1  0  0  0  0
  1 13  1  0  0  0  0
  1 14  1  0  0  0  0
  1 15  1  0  0  0  0
  2  3  2  0  0  0  0
  2  4  1  0  0  0  0
  3 16  1  0  0  0  0
  3 17  1  0  0  0  0
  4  5  1  1  0  0  0
  4 10  1  0  0  0  0
  4  6  1  0  0  0  0
  6  7  1  0  0  0  0
  6 18  1  0  0  0  0
  6 19  1  0  0  0  0
  7  8  1  0  0  0  0
  7 20  1  0  0  0  0
  7 21  1  0  0  0  0
  8  9  2  0  0  0  0
  8 11  1  0  0  0  0
  9 10  1  0  0  0  0
  9 22  1  0  0  0  0
 10 23  1  0  0  0  0
 10 24  1  0  0  0  0
 11 12  2  0  0  0  0
 11 25  1  0  0  0  0
M  END
>  <COMPND>
    mobley_5006685 

>  <AUTHOR>
    GENERATED BY OPEN BABEL 2.3.2

>  <MASTER>
        0    0    0    0    0    0    0    0   25    0   25    0

$$$$
