mobley_2023925.pdb
 OpenBabel09222014463D

 12 11  0  0  1  0  0  0  0  0999 V2000
    0.5870   -0.0500   -0.0820 C   0  0  2  0  0  0  0  0  0  0  0  0
    0.7940    1.0220    0.0170 H   0  0  0  0  0  0  0  0  0  0  0  0
    1.1040   -0.7850    1.1360 C   0  0  0  0  0  0  0  0  0  0  0  0
    0.5220   -0.3480    2.2730 F   0  0  0  0  0  0  0  0  0  0  0  0
    2.4390   -0.6090    1.2650 F   0  0  0  0  0  0  0  0  0  0  0  0
    0.8830   -2.1140    1.0370 F   0  0  0  0  0  0  0  0  0  0  0  0
   -0.8140   -0.2970   -0.1850 O   0  0  0  0  0  0  0  0  0  0  0  0
   -1.5190    0.7700   -0.7960 C   0  0  0  0  0  0  0  0  0  0  0  0
   -2.8330    0.4360   -0.8160 F   0  0  0  0  0  0  0  0  0  0  0  0
   -1.4050    1.8720   -0.0150 F   0  0  0  0  0  0  0  0  0  0  0  0
    1.4150   -0.6520   -1.5420 Cl  0  0  0  0  0  0  0  0  0  0  0  0
   -1.1840    0.9860   -1.8150 H   0  0  0  0  0  0  0  0  0  0  0  0
  1  2  1  1  0  0  0
  1  3  1  0  0  0  0
  1  7  1  0  0  0  0
  1 11  1  0  0  0  0
  3  4  1  0  0  0  0
  3  5  1  0  0  0  0
  3  6  1  0  0  0  0
  7  8  1  0  0  0  0
  8  9  1  0  0  0  0
  8 10  1  0  0  0  0
  8 12  1  0  0  0  0
M  END
>  <COMPND>
    mobley_2023925 

>  <AUTHOR>
    GENERATED BY OPEN BABEL 2.3.2

>  <MASTER>
        0    0    0    0    0    0    0    0   12    0   12    0

$$$$
