mobley_9913368.pdb
 OpenBabel09222014463D

  6  5  0  0  0  0  0  0  0  0999 V2000
   -0.0950    0.5820    0.3080 C   0  0  0  0  0  0  0  0  0  0  0  0
    0.0950   -0.5820   -0.3080 C   0  0  0  0  0  0  0  0  0  0  0  0
    1.0320   -1.8460    0.3690 Cl  0  0  0  0  0  0  0  0  0  0  0  0
   -1.0310    1.8460   -0.3700 Cl  0  0  0  0  0  0  0  0  0  0  0  0
    0.3140    0.8410    1.2760 H   0  0  0  0  0  0  0  0  0  0  0  0
   -0.3130   -0.8410   -1.2760 H   0  0  0  0  0  0  0  0  0  0  0  0
  1  2  2  0  0  0  0
  1  4  1  0  0  0  0
  1  5  1  0  0  0  0
  2  3  1  0  0  0  0
  2  6  1  0  0  0  0
M  END
>  <COMPND>
    mobley_9913368 

>  <AUTHOR>
    GENERATED BY OPEN BABEL 2.3.2

>  <MASTER>
        0    0    0    0    0    0    0    0    6    0    6    0

$$$$
