mobley_6981465.pdb
 OpenBabel09222014463D

 17 16  0  0  0  0  0  0  0  0999 V2000
    1.0770    0.0500    0.1960 C   0  0  0  0  0  0  0  0  0  0  0  0
    1.3530    0.9190    1.4130 C   0  0  0  0  0  0  0  0  0  0  0  0
    2.8430    1.0380    1.6980 C   0  0  0  0  0  0  0  0  0  0  0  0
    0.8120    2.2180    1.1940 O   0  0  0  0  0  0  0  0  0  0  0  0
    0.3750    2.8740    2.3100 C   0  0  0  0  0  0  0  0  0  0  0  0
    0.4070    2.4480    3.4570 O   0  0  0  0  0  0  0  0  0  0  0  0
   -0.1640    4.2200    1.9290 C   0  0  0  0  0  0  0  0  0  0  0  0
    0.0030   -0.0290    0.0000 H   0  0  0  0  0  0  0  0  0  0  0  0
    1.5640    0.4690   -0.6910 H   0  0  0  0  0  0  0  0  0  0  0  0
    1.4830   -0.9590    0.3310 H   0  0  0  0  0  0  0  0  0  0  0  0
    0.8470    0.4960    2.2870 H   0  0  0  0  0  0  0  0  0  0  0  0
    3.0310    1.6650    2.5750 H   0  0  0  0  0  0  0  0  0  0  0  0
    3.3610    1.4750    0.8370 H   0  0  0  0  0  0  0  0  0  0  0  0
    3.2910    0.0530    1.8680 H   0  0  0  0  0  0  0  0  0  0  0  0
   -1.2320    4.1430    1.7100 H   0  0  0  0  0  0  0  0  0  0  0  0
    0.3810    4.6060    1.0650 H   0  0  0  0  0  0  0  0  0  0  0  0
   -0.0290    4.9140    2.7640 H   0  0  0  0  0  0  0  0  0  0  0  0
  1  2  1  0  0  0  0
  1  8  1  0  0  0  0
  1  9  1  0  0  0  0
  1 10  1  0  0  0  0
  2  3  1  0  0  0  0
  2  4  1  0  0  0  0
  2 11  1  0  0  0  0
  3 12  1  0  0  0  0
  3 13  1  0  0  0  0
  3 14  1  0  0  0  0
  4  5  1  0  0  0  0
  5  6  2  0  0  0  0
  5  7  1  0  0  0  0
  7 15  1  0  0  0  0
  7 16  1  0  0  0  0
  7 17  1  0  0  0  0
M  END
>  <COMPND>
    mobley_6981465 

>  <AUTHOR>
    GENERATED BY OPEN BABEL 2.3.2

>  <MASTER>
        0    0    0    0    0    0    0    0   17    0   17    0

$$$$
