mobley_8746821.pdb
 OpenBabel09222014463D

 17 17  0  0  0  0  0  0  0  0999 V2000
    2.8940   -0.2500    3.6320 C   0  0  0  0  0  0  0  0  0  0  0  0
    1.6520   -0.6230    2.9000 C   0  0  0  0  0  0  0  0  0  0  0  0
    1.3880   -0.0680    1.6520 C   0  0  0  0  0  0  0  0  0  0  0  0
    0.2270   -0.4200    0.9730 C   0  0  0  0  0  0  0  0  0  0  0  0
   -0.6320   -1.3220    1.5800 C   0  0  0  0  0  0  0  0  0  0  0  0
   -0.4090   -1.8820    2.7910 N   0  0  0  0  0  0  0  0  0  0  0  0
    0.7300   -1.5160    3.4210 C   0  0  0  0  0  0  0  0  0  0  0  0
    0.9620   -2.1430    4.7560 C   0  0  0  0  0  0  0  0  0  0  0  0
    3.7060   -0.9340    3.3650 H   0  0  0  0  0  0  0  0  0  0  0  0
    3.2000    0.7730    3.3890 H   0  0  0  0  0  0  0  0  0  0  0  0
    2.7370   -0.2920    4.7150 H   0  0  0  0  0  0  0  0  0  0  0  0
    2.0800    0.6380    1.2020 H   0  0  0  0  0  0  0  0  0  0  0  0
   -0.0020   -0.0010    0.0000 H   0  0  0  0  0  0  0  0  0  0  0  0
   -1.5510   -1.6290    1.0920 H   0  0  0  0  0  0  0  0  0  0  0  0
    1.5200   -3.0800    4.6440 H   0  0  0  0  0  0  0  0  0  0  0  0
    1.5300   -1.4740    5.4150 H   0  0  0  0  0  0  0  0  0  0  0  0
    0.0130   -2.3600    5.2630 H   0  0  0  0  0  0  0  0  0  0  0  0
  1  2  1  0  0  0  0
  1  9  1  0  0  0  0
  1 10  1  0  0  0  0
  1 11  1  0  0  0  0
  2  7  2  0  0  0  0
  2  3  1  0  0  0  0
  3  4  2  0  0  0  0
  3 12  1  0  0  0  0
  4  5  1  0  0  0  0
  4 13  1  0  0  0  0
  5  6  2  0  0  0  0
  5 14  1  0  0  0  0
  6  7  1  0  0  0  0
  7  8  1  0  0  0  0
  8 15  1  0  0  0  0
  8 16  1  0  0  0  0
  8 17  1  0  0  0  0
M  END
>  <COMPND>
    mobley_8746821 

>  <AUTHOR>
    GENERATED BY OPEN BABEL 2.3.2

>  <MASTER>
        0    0    0    0    0    0    0    0   17    0   17    0

$$$$
