mobley_6743808.pdb
 OpenBabel09222014463D

 19 19  0  0  0  0  0  0  0  0999 V2000
    1.9520   -1.0270   -1.6040 C   0  0  0  0  0  0  0  0  0  0  0  0
    1.8850   -1.0360   -0.1120 C   0  0  0  0  0  0  0  0  0  0  0  0
    2.9210   -1.6310    0.6080 C   0  0  0  0  0  0  0  0  0  0  0  0
    2.8780   -1.6520    2.0020 C   0  0  0  0  0  0  0  0  0  0  0  0
    1.8000   -1.0790    2.6760 C   0  0  0  0  0  0  0  0  0  0  0  0
    0.7640   -0.4840    1.9550 C   0  0  0  0  0  0  0  0  0  0  0  0
    0.8070   -0.4630    0.5610 C   0  0  0  0  0  0  0  0  0  0  0  0
   -0.3150    0.1780   -0.1890 C   0  0  0  0  0  0  0  0  0  0  0  0
    1.7580   -1.1000    4.0360 O   0  0  0  0  0  0  0  0  0  0  0  0
    2.4650   -0.1240   -1.9500 H   0  0  0  0  0  0  0  0  0  0  0  0
    2.4900   -1.9040   -1.9770 H   0  0  0  0  0  0  0  0  0  0  0  0
    0.9480   -1.0530   -2.0410 H   0  0  0  0  0  0  0  0  0  0  0  0
    3.7650   -2.0810    0.0920 H   0  0  0  0  0  0  0  0  0  0  0  0
    3.6890   -2.1160    2.5580 H   0  0  0  0  0  0  0  0  0  0  0  0
   -0.0760   -0.0390    2.4830 H   0  0  0  0  0  0  0  0  0  0  0  0
   -0.1050    1.2410   -0.3510 H   0  0  0  0  0  0  0  0  0  0  0  0
   -0.4640   -0.3020   -1.1650 H   0  0  0  0  0  0  0  0  0  0  0  0
   -1.2610    0.0870    0.3590 H   0  0  0  0  0  0  0  0  0  0  0  0
    2.5440   -1.5460    4.3900 H   0  0  0  0  0  0  0  0  0  0  0  0
  1  2  1  0  0  0  0
  1 10  1  0  0  0  0
  1 11  1  0  0  0  0
  1 12  1  0  0  0  0
  2  7  2  0  0  0  0
  2  3  1  0  0  0  0
  3  4  2  0  0  0  0
  3 13  1  0  0  0  0
  4  5  1  0  0  0  0
  4 14  1  0  0  0  0
  5  6  2  0  0  0  0
  5  9  1  0  0  0  0
  6  7  1  0  0  0  0
  6 15  1  0  0  0  0
  7  8  1  0  0  0  0
  8 16  1  0  0  0  0
  8 17  1  0  0  0  0
  8 18  1  0  0  0  0
  9 19  1  0  0  0  0
M  END
>  <COMPND>
    mobley_6743808 

>  <AUTHOR>
    GENERATED BY OPEN BABEL 2.3.2

>  <MASTER>
        0    0    0    0    0    0    0    0   19    0   19    0

$$$$
