mobley_1977493.pdb
 OpenBabel09222014463D

 11 10  0  0  0  0  0  0  0  0999 V2000
    0.3670    0.5010    0.9010 C   0  0  0  0  0  0  0  0  0  0  0  0
    0.8900   -0.5270    1.8940 C   0  0  0  0  0  0  0  0  0  0  0  0
    1.5180    0.0930    3.1360 C   0  0  0  0  0  0  0  0  0  0  0  0
    2.1150   -1.1410    4.2690 Cl  0  0  0  0  0  0  0  0  0  0  0  0
   -0.0740    0.0130    0.0270 H   0  0  0  0  0  0  0  0  0  0  0  0
   -0.4060    1.1170    1.3710 H   0  0  0  0  0  0  0  0  0  0  0  0
    1.1610    1.1720    0.5580 H   0  0  0  0  0  0  0  0  0  0  0  0
    0.0770   -1.2050    2.1790 H   0  0  0  0  0  0  0  0  0  0  0  0
    1.6480   -1.1390    1.3900 H   0  0  0  0  0  0  0  0  0  0  0  0
    0.8000    0.7220    3.6710 H   0  0  0  0  0  0  0  0  0  0  0  0
    2.3740    0.7140    2.8540 H   0  0  0  0  0  0  0  0  0  0  0  0
  1  2  1  0  0  0  0
  1  5  1  0  0  0  0
  1  6  1  0  0  0  0
  1  7  1  0  0  0  0
  2  3  1  0  0  0  0
  2  8  1  0  0  0  0
  2  9  1  0  0  0  0
  3  4  1  0  0  0  0
  3 10  1  0  0  0  0
  3 11  1  0  0  0  0
M  END
>  <COMPND>
    mobley_1977493 

>  <AUTHOR>
    GENERATED BY OPEN BABEL 2.3.2

>  <MASTER>
        0    0    0    0    0    0    0    0   11    0   11    0

$$$$
