mobley_3452749.pdb
 OpenBabel09222014463D

 21 21  0  0  0  0  0  0  0  0999 V2000
    1.9540   -1.0290   -1.6050 C   0  0  0  0  0  0  0  0  0  0  0  0
    1.8850   -1.0360   -0.1120 C   0  0  0  0  0  0  0  0  0  0  0  0
    2.9210   -1.6310    0.6080 C   0  0  0  0  0  0  0  0  0  0  0  0
    2.8780   -1.6520    2.0020 C   0  0  0  0  0  0  0  0  0  0  0  0
    1.8000   -1.0790    2.6760 C   0  0  0  0  0  0  0  0  0  0  0  0
    0.7640   -0.4840    1.9550 C   0  0  0  0  0  0  0  0  0  0  0  0
    0.8070   -0.4630    0.5610 C   0  0  0  0  0  0  0  0  0  0  0  0
   -0.3050    0.1730   -0.2110 C   0  0  0  0  0  0  0  0  0  0  0  0
   -0.3800    0.1230    2.7000 C   0  0  0  0  0  0  0  0  0  0  0  0
    2.4680   -0.1260   -1.9510 H   0  0  0  0  0  0  0  0  0  0  0  0
    2.4930   -1.9070   -1.9750 H   0  0  0  0  0  0  0  0  0  0  0  0
    0.9510   -1.0550   -2.0430 H   0  0  0  0  0  0  0  0  0  0  0  0
    3.7660   -2.0800    0.0930 H   0  0  0  0  0  0  0  0  0  0  0  0
    3.6860   -2.1140    2.5630 H   0  0  0  0  0  0  0  0  0  0  0  0
    1.7760   -1.0990    3.7620 H   0  0  0  0  0  0  0  0  0  0  0  0
   -0.0910    1.2340   -0.3770 H   0  0  0  0  0  0  0  0  0  0  0  0
   -0.4390   -0.3150   -1.1840 H   0  0  0  0  0  0  0  0  0  0  0  0
   -1.2570    0.0870    0.3250 H   0  0  0  0  0  0  0  0  0  0  0  0
   -0.1730    1.1770    2.9190 H   0  0  0  0  0  0  0  0  0  0  0  0
   -1.3080    0.0610    2.1200 H   0  0  0  0  0  0  0  0  0  0  0  0
   -0.5580   -0.4020    3.6470 H   0  0  0  0  0  0  0  0  0  0  0  0
  1  2  1  0  0  0  0
  1 10  1  0  0  0  0
  1 11  1  0  0  0  0
  1 12  1  0  0  0  0
  2  7  2  0  0  0  0
  2  3  1  0  0  0  0
  3  4  2  0  0  0  0
  3 13  1  0  0  0  0
  4  5  1  0  0  0  0
  4 14  1  0  0  0  0
  5  6  2  0  0  0  0
  5 15  1  0  0  0  0
  6  7  1  0  0  0  0
  6  9  1  0  0  0  0
  7  8  1  0  0  0  0
  8 16  1  0  0  0  0
  8 17  1  0  0  0  0
  8 18  1  0  0  0  0
  9 19  1  0  0  0  0
  9 20  1  0  0  0  0
  9 21  1  0  0  0  0
M  END
>  <COMPND>
    mobley_3452749 

>  <AUTHOR>
    GENERATED BY OPEN BABEL 2.3.2

>  <MASTER>
        0    0    0    0    0    0    0    0   21    0   21    0

$$$$
