mobley_4639255.pdb
 OpenBabel09222014463D

 10  9  0  0  0  0  0  0  0  0999 V2000
   -2.1460   -0.1940   -0.1210 C   0  0  0  0  0  0  0  0  0  0  0  0
   -0.8940    0.4510    0.4420 C   0  0  0  0  0  0  0  0  0  0  0  0
   -0.8120    1.7920   -0.0250 O   0  0  0  0  0  0  0  0  0  0  0  0
   -3.2830    0.5410    0.3170 O   0  0  0  0  0  0  0  0  0  0  0  0
   -2.2510   -1.2250    0.2300 H   0  0  0  0  0  0  0  0  0  0  0  0
   -2.1270   -0.1760   -1.2140 H   0  0  0  0  0  0  0  0  0  0  0  0
    0.0050   -0.0800    0.1120 H   0  0  0  0  0  0  0  0  0  0  0  0
   -0.9310    0.4690    1.5350 H   0  0  0  0  0  0  0  0  0  0  0  0
   -0.0030    2.1700    0.3540 H   0  0  0  0  0  0  0  0  0  0  0  0
   -4.0610    0.1020   -0.0600 H   0  0  0  0  0  0  0  0  0  0  0  0
  1  2  1  0  0  0  0
  1  4  1  0  0  0  0
  1  5  1  0  0  0  0
  1  6  1  0  0  0  0
  2  3  1  0  0  0  0
  2  7  1  0  0  0  0
  2  8  1  0  0  0  0
  3  9  1  0  0  0  0
  4 10  1  0  0  0  0
M  END
>  <COMPND>
    mobley_4639255 

>  <AUTHOR>
    GENERATED BY OPEN BABEL 2.3.2

>  <MASTER>
        0    0    0    0    0    0    0    0   10    0   10    0

$$$$
