mobley_1107178.pdb
 OpenBabel09222014463D

  8  7  0  0  0  0  0  0  0  0999 V2000
    0.1450   -0.6960    0.8340 C   0  0  0  0  0  0  0  0  0  0  0  0
    1.4100   -0.3750    1.6100 C   0  0  0  0  0  0  0  0  0  0  0  0
    3.1270   -0.5150    0.3560 I   0  0  0  0  0  0  0  0  0  0  0  0
   -0.7290   -0.6200    1.4900 H   0  0  0  0  0  0  0  0  0  0  0  0
    0.0000    0.0000    0.0000 H   0  0  0  0  0  0  0  0  0  0  0  0
    0.1720   -1.7120    0.4270 H   0  0  0  0  0  0  0  0  0  0  0  0
    1.5090   -1.0690    2.4520 H   0  0  0  0  0  0  0  0  0  0  0  0
    1.3370    0.6350    2.0280 H   0  0  0  0  0  0  0  0  0  0  0  0
  1  2  1  0  0  0  0
  1  4  1  0  0  0  0
  1  5  1  0  0  0  0
  1  6  1  0  0  0  0
  2  3  1  0  0  0  0
  2  7  1  0  0  0  0
  2  8  1  0  0  0  0
M  END
>  <COMPND>
    mobley_1107178 

>  <AUTHOR>
    GENERATED BY OPEN BABEL 2.3.2

>  <MASTER>
        0    0    0    0    0    0    0    0    8    0    8    0

$$$$
