mobley_7732703.pdb
 OpenBabel09222014463D

  5  4  0  0  0  0  0  0  0  0999 V2000
   -0.0790   -0.0120    0.0410 C   0  0  0  0  0  0  0  0  0  0  0  0
   -0.0160   -1.0030    0.9600 F   0  0  0  0  0  0  0  0  0  0  0  0
   -1.0430   -0.3420   -0.8500 F   0  0  0  0  0  0  0  0  0  0  0  0
   -0.4800    1.1120    0.6790 F   0  0  0  0  0  0  0  0  0  0  0  0
    1.6190    0.2450   -0.8300 Br  0  0  0  0  0  0  0  0  0  0  0  0
  1  2  1  0  0  0  0
  1  3  1  0  0  0  0
  1  4  1  0  0  0  0
  1  5  1  0  0  0  0
M  END
>  <COMPND>
    mobley_7732703 

>  <AUTHOR>
    GENERATED BY OPEN BABEL 2.3.2

>  <MASTER>
        0    0    0    0    0    0    0    0    5    0    5    0

$$$$
