mobley_2523689.pdb
 OpenBabel09222014463D

 23 24  0  0  0  0  0  0  0  0999 V2000
    6.0300    0.7040   -6.7360 C   0  0  0  0  0  0  0  0  0  0  0  0
    6.3140   -0.1390   -5.6610 C   0  0  0  0  0  0  0  0  0  0  0  0
    5.3930   -0.2800   -4.6230 C   0  0  0  0  0  0  0  0  0  0  0  0
    4.1870    0.4210   -4.6600 C   0  0  0  0  0  0  0  0  0  0  0  0
    3.9030    1.2630   -5.7360 C   0  0  0  0  0  0  0  0  0  0  0  0
    4.8240    1.4040   -6.7730 C   0  0  0  0  0  0  0  0  0  0  0  0
    3.2340    0.2750   -3.5870 N   0  0  0  0  0  0  0  0  0  0  0  0
    1.8450    0.3730   -3.7330 C   0  0  0  0  0  0  0  0  0  0  0  0
    1.2400    0.5130   -4.7960 O   0  0  0  0  0  0  0  0  0  0  0  0
    1.0400    0.2700   -2.4780 C   0  0  0  0  0  0  0  0  0  0  0  0
    1.6030    0.0360   -1.2910 C   0  0  0  0  0  0  0  0  0  0  0  0
    3.0630   -0.1060   -1.3400 C   0  0  0  0  0  0  0  0  0  0  0  0
    3.8180    0.0040   -2.3780 N   0  0  0  0  0  0  0  0  0  0  0  0
    1.0060   -0.0890   -0.0750 N   0  0  0  0  0  0  0  0  0  0  0  0
   -0.6730    0.4610   -2.6330 Cl  0  0  0  0  0  0  0  0  0  0  0  0
    6.7470    0.8130   -7.5440 H   0  0  0  0  0  0  0  0  0  0  0  0
    7.2520   -0.6850   -5.6330 H   0  0  0  0  0  0  0  0  0  0  0  0
    5.6250   -0.9390   -3.7900 H   0  0  0  0  0  0  0  0  0  0  0  0
    2.9670    1.8140   -5.7760 H   0  0  0  0  0  0  0  0  0  0  0  0
    4.6020    2.0590   -7.6110 H   0  0  0  0  0  0  0  0  0  0  0  0
    3.5540   -0.3250   -0.3770 H   0  0  0  0  0  0  0  0  0  0  0  0
    1.5760   -0.2660    0.7260 H   0  0  0  0  0  0  0  0  0  0  0  0
    0.0130    0.0000   -0.0150 H   0  0  0  0  0  0  0  0  0  0  0  0
  1  6  2  0  0  0  0
  1  2  1  0  0  0  0
  1 16  1  0  0  0  0
  2  3  2  0  0  0  0
  2 17  1  0  0  0  0
  3  4  1  0  0  0  0
  3 18  1  0  0  0  0
  4  5  2  0  0  0  0
  4  7  1  0  0  0  0
  5  6  1  0  0  0  0
  5 19  1  0  0  0  0
  6 20  1  0  0  0  0
  7 13  1  0  0  0  0
  7  8  1  0  0  0  0
  8  9  2  0  0  0  0
  8 10  1  0  0  0  0
 10 11  2  0  0  0  0
 10 15  1  0  0  0  0
 11 12  1  0  0  0  0
 11 14  1  0  0  0  0
 12 13  2  0  0  0  0
 12 21  1  0  0  0  0
 14 22  1  0  0  0  0
 14 23  1  0  0  0  0
M  END
>  <COMPND>
    mobley_2523689 

>  <AUTHOR>
    GENERATED BY OPEN BABEL 2.3.2

>  <MASTER>
        0    0    0    0    0    0    0    0   23    0   23    0

$$$$
