mobley_8764620.pdb
 OpenBabel09222014463D

 12 12  0  0  0  0  0  0  0  0999 V2000
    1.6520   -0.6230    2.9000 C   0  0  0  0  0  0  0  0  0  0  0  0
    1.3880   -0.0680    1.6520 C   0  0  0  0  0  0  0  0  0  0  0  0
    0.2270   -0.4200    0.9730 C   0  0  0  0  0  0  0  0  0  0  0  0
   -0.6320   -1.3220    1.5800 C   0  0  0  0  0  0  0  0  0  0  0  0
   -0.4090   -1.8820    2.7910 N   0  0  0  0  0  0  0  0  0  0  0  0
    0.7300   -1.5160    3.4210 C   0  0  0  0  0  0  0  0  0  0  0  0
   -0.0720    0.1330   -0.3080 C   0  0  0  0  0  0  0  0  0  0  0  0
   -0.3160    0.5830   -1.3530 N   0  0  0  0  0  0  0  0  0  0  0  0
    2.5510   -0.3640    3.4470 H   0  0  0  0  0  0  0  0  0  0  0  0
    2.0960    0.6350    1.2220 H   0  0  0  0  0  0  0  0  0  0  0  0
   -1.5550   -1.6380    1.1030 H   0  0  0  0  0  0  0  0  0  0  0  0
    0.8890   -1.9760    4.3900 H   0  0  0  0  0  0  0  0  0  0  0  0
  1  6  2  0  0  0  0
  1  2  1  0  0  0  0
  1  9  1  0  0  0  0
  2  3  2  0  0  0  0
  2 10  1  0  0  0  0
  3  4  1  0  0  0  0
  3  7  1  0  0  0  0
  4  5  2  0  0  0  0
  4 11  1  0  0  0  0
  5  6  1  0  0  0  0
  6 12  1  0  0  0  0
  7  8  3  0  0  0  0
M  END
>  <COMPND>
    mobley_8764620 

>  <AUTHOR>
    GENERATED BY OPEN BABEL 2.3.2

>  <MASTER>
        0    0    0    0    0    0    0    0   12    0   12    0

$$$$
