mobley_1922649.pdb
 OpenBabel09222014463D

 26 26  0  0  0  0  0  0  0  0999 V2000
   -0.0170    0.3800   -0.6300 C   0  0  0  0  0  0  0  0  0  0  0  0
    0.6450   -0.3890   -1.6210 O   0  0  0  0  0  0  0  0  0  0  0  0
   -0.2260   -1.2120   -2.7240 P   0  0  0  0  0  0  0  0  0  0  0  0
   -1.4460   -2.5580   -2.0140 S   0  0  0  0  0  0  0  0  0  0  0  0
    0.9500   -1.7250   -3.7250 O   0  0  0  0  0  0  0  0  0  0  0  0
    1.9860   -2.5550   -3.2280 C   0  0  0  0  0  0  0  0  0  0  0  0
   -0.8840    0.0040   -3.5710 O   0  0  0  0  0  0  0  0  0  0  0  0
   -1.7270   -0.1140   -4.6430 C   0  0  0  0  0  0  0  0  0  0  0  0
   -1.6290   -1.2190   -5.4890 C   0  0  0  0  0  0  0  0  0  0  0  0
   -2.4880   -1.3390   -6.5810 C   0  0  0  0  0  0  0  0  0  0  0  0
   -3.4450   -0.3540   -6.8280 C   0  0  0  0  0  0  0  0  0  0  0  0
   -3.5430    0.7500   -5.9820 C   0  0  0  0  0  0  0  0  0  0  0  0
   -2.6840    0.8710   -4.8890 C   0  0  0  0  0  0  0  0  0  0  0  0
   -4.3190   -0.4770   -7.9400 N   0  0  0  0  0  0  0  0  0  0  0  0
   -5.1730    0.4200   -8.1440 O   0  5  0  0  0  0  0  0  0  0  0  0
   -4.2150   -1.4780   -8.6880 O   0  5  0  0  0  0  0  0  0  0  0  0
    0.7240    0.8570    0.0160 H   0  0  0  0  0  0  0  0  0  0  0  0
   -0.6670   -0.2700   -0.0390 H   0  0  0  0  0  0  0  0  0  0  0  0
   -0.6200    1.1480   -1.1200 H   0  0  0  0  0  0  0  0  0  0  0  0
    2.6780   -2.7970   -4.0380 H   0  0  0  0  0  0  0  0  0  0  0  0
    1.5530   -3.4700   -2.8180 H   0  0  0  0  0  0  0  0  0  0  0  0
    2.5200   -2.0210   -2.4410 H   0  0  0  0  0  0  0  0  0  0  0  0
   -0.8860   -1.9890   -5.3020 H   0  0  0  0  0  0  0  0  0  0  0  0
   -2.4010   -2.2050   -7.2330 H   0  0  0  0  0  0  0  0  0  0  0  0
   -4.2840    1.5250   -6.1620 H   0  0  0  0  0  0  0  0  0  0  0  0
   -2.7650    1.7330   -4.2340 H   0  0  0  0  0  0  0  0  0  0  0  0
  1  2  1  0  0  0  0
  1 17  1  0  0  0  0
  1 18  1  0  0  0  0
  1 19  1  0  0  0  0
  2  3  1  0  0  0  0
  3  4  1  0  0  0  0
  3  5  1  0  0  0  0
  3  7  1  0  0  0  0
  5  6  1  0  0  0  0
  6 20  1  0  0  0  0
  6 21  1  0  0  0  0
  6 22  1  0  0  0  0
  7  8  1  0  0  0  0
  8 13  2  0  0  0  0
  8  9  1  0  0  0  0
  9 10  2  0  0  0  0
  9 23  1  0  0  0  0
 10 11  1  0  0  0  0
 10 24  1  0  0  0  0
 11 12  2  0  0  0  0
 11 14  1  0  0  0  0
 12 13  1  0  0  0  0
 12 25  1  0  0  0  0
 13 26  1  0  0  0  0
 14 15  2  0  0  0  0
 14 16  2  0  0  0  0
M  CHG  2  15  -1  16  -1
M  END
>  <COMPND>
    mobley_1922649 

>  <AUTHOR>
    GENERATED BY OPEN BABEL 2.3.2

>  <MASTER>
        0    0    0    0    0    0    0    0   26    0   26    0

$$$$
