mobley_5852491.pdb
 OpenBabel09222014463D

 18 18  0  0  0  0  0  0  0  0999 V2000
    0.5910   -1.1930   -4.1770 C   0  0  0  0  0  0  0  0  0  0  0  0
    0.0450   -0.9980   -2.7730 C   0  0  0  0  0  0  0  0  0  0  0  0
    0.6370    0.2130   -2.0600 C   0  0  0  0  0  0  0  0  0  0  0  0
   -0.3400    0.4880   -0.9210 C   0  0  0  0  0  0  0  0  0  0  0  0
   -1.6800   -0.1060   -1.3570 C   0  0  0  0  0  0  0  0  0  0  0  0
   -1.4490   -0.6930   -2.7460 C   0  0  0  0  0  0  0  0  0  0  0  0
    1.6630   -1.4090   -4.1450 H   0  0  0  0  0  0  0  0  0  0  0  0
    0.0860   -2.0270   -4.6730 H   0  0  0  0  0  0  0  0  0  0  0  0
    0.4390   -0.2910   -4.7770 H   0  0  0  0  0  0  0  0  0  0  0  0
    0.2420   -1.9010   -2.1810 H   0  0  0  0  0  0  0  0  0  0  0  0
    1.6520    0.0270   -1.6940 H   0  0  0  0  0  0  0  0  0  0  0  0
    0.6760    1.0810   -2.7300 H   0  0  0  0  0  0  0  0  0  0  0  0
    0.0010    0.0010    0.0000 H   0  0  0  0  0  0  0  0  0  0  0  0
   -0.4170    1.5600   -0.7140 H   0  0  0  0  0  0  0  0  0  0  0  0
   -1.9820   -0.8930   -0.6570 H   0  0  0  0  0  0  0  0  0  0  0  0
   -2.4750    0.6460   -1.3690 H   0  0  0  0  0  0  0  0  0  0  0  0
   -2.0610   -1.5830   -2.9210 H   0  0  0  0  0  0  0  0  0  0  0  0
   -1.7110    0.0500   -3.5100 H   0  0  0  0  0  0  0  0  0  0  0  0
  1  2  1  0  0  0  0
  1  7  1  0  0  0  0
  1  8  1  0  0  0  0
  1  9  1  0  0  0  0
  2  6  1  0  0  0  0
  2  3  1  0  0  0  0
  2 10  1  0  0  0  0
  3  4  1  0  0  0  0
  3 11  1  0  0  0  0
  3 12  1  0  0  0  0
  4  5  1  0  0  0  0
  4 13  1  0  0  0  0
  4 14  1  0  0  0  0
  5  6  1  0  0  0  0
  5 15  1  0  0  0  0
  5 16  1  0  0  0  0
  6 17  1  0  0  0  0
  6 18  1  0  0  0  0
M  END
>  <COMPND>
    mobley_5852491 

>  <AUTHOR>
    GENERATED BY OPEN BABEL 2.3.2

>  <MASTER>
        0    0    0    0    0    0    0    0   18    0   18    0

$$$$
