mobley_1899443.pdb
 OpenBabel09222014463D

 18 17  0  0  0  0  0  0  0  0999 V2000
   -2.9330   -0.8840    3.6710 C   0  0  0  0  0  0  0  0  0  0  0  0
   -1.5050   -0.4730    3.3450 C   0  0  0  0  0  0  0  0  0  0  0  0
   -1.4660    0.5640    2.2200 C   0  0  0  0  0  0  0  0  0  0  0  0
   -0.0600    0.9920    1.8730 C   0  0  0  0  0  0  0  0  0  0  0  0
    0.4430    0.8140    0.6410 C   0  0  0  0  0  0  0  0  0  0  0  0
    0.7390    1.6590    2.9550 C   0  0  0  0  0  0  0  0  0  0  0  0
   -2.9540   -1.6250    4.4770 H   0  0  0  0  0  0  0  0  0  0  0  0
   -3.4280   -1.3140    2.7950 H   0  0  0  0  0  0  0  0  0  0  0  0
   -3.5130   -0.0140    3.9960 H   0  0  0  0  0  0  0  0  0  0  0  0
   -1.0390   -0.0710    4.2520 H   0  0  0  0  0  0  0  0  0  0  0  0
   -0.9340   -1.3630    3.0560 H   0  0  0  0  0  0  0  0  0  0  0  0
   -1.9640    0.1480    1.3340 H   0  0  0  0  0  0  0  0  0  0  0  0
   -2.0490    1.4490    2.5050 H   0  0  0  0  0  0  0  0  0  0  0  0
    1.4480    1.1330    0.3900 H   0  0  0  0  0  0  0  0  0  0  0  0
   -0.1390    0.3410   -0.1430 H   0  0  0  0  0  0  0  0  0  0  0  0
    1.2940    0.9130    3.5330 H   0  0  0  0  0  0  0  0  0  0  0  0
    1.4520    2.3700    2.5280 H   0  0  0  0  0  0  0  0  0  0  0  0
    0.1020    2.2110    3.6550 H   0  0  0  0  0  0  0  0  0  0  0  0
  1  2  1  0  0  0  0
  1  7  1  0  0  0  0
  1  8  1  0  0  0  0
  1  9  1  0  0  0  0
  2  3  1  0  0  0  0
  2 10  1  0  0  0  0
  2 11  1  0  0  0  0
  3  4  1  0  0  0  0
  3 12  1  0  0  0  0
  3 13  1  0  0  0  0
  4  5  2  0  0  0  0
  4  6  1  0  0  0  0
  5 14  1  0  0  0  0
  5 15  1  0  0  0  0
  6 16  1  0  0  0  0
  6 17  1  0  0  0  0
  6 18  1  0  0  0  0
M  END
>  <COMPND>
    mobley_1899443 

>  <AUTHOR>
    GENERATED BY OPEN BABEL 2.3.2

>  <MASTER>
        0    0    0    0    0    0    0    0   18    0   18    0

$$$$
