mobley_1821184.pdb
 OpenBabel09222014463D

 19 20  0  0  0  0  0  0  0  0999 V2000
   -4.2340    1.7080    4.5380 C   0  0  0  0  0  0  0  0  0  0  0  0
   -3.8590    0.6900    3.5360 C   0  0  0  0  0  0  0  0  0  0  0  0
   -4.5470   -0.4720    3.2740 C   0  0  0  0  0  0  0  0  0  0  0  0
   -3.8820   -1.1420    2.2820 N   0  0  0  0  0  0  0  0  0  0  0  0
   -2.7680   -0.4310    1.8940 C   0  0  0  0  0  0  0  0  0  0  0  0
   -2.7300    0.7290    2.6690 C   0  0  0  0  0  0  0  0  0  0  0  0
   -1.6770    1.6440    2.4700 C   0  0  0  0  0  0  0  0  0  0  0  0
   -0.7040    1.3640    1.5040 C   0  0  0  0  0  0  0  0  0  0  0  0
   -0.7670    0.1980    0.7450 C   0  0  0  0  0  0  0  0  0  0  0  0
   -1.8020   -0.7250    0.9250 C   0  0  0  0  0  0  0  0  0  0  0  0
   -4.8900    2.4560    4.0840 H   0  0  0  0  0  0  0  0  0  0  0  0
   -4.7540    1.2490    5.3850 H   0  0  0  0  0  0  0  0  0  0  0  0
   -3.3460    2.2100    4.9360 H   0  0  0  0  0  0  0  0  0  0  0  0
   -5.4490   -0.8840    3.7040 H   0  0  0  0  0  0  0  0  0  0  0  0
   -4.1660   -2.0300    1.8910 H   0  0  0  0  0  0  0  0  0  0  0  0
   -1.6130    2.5570    3.0540 H   0  0  0  0  0  0  0  0  0  0  0  0
    0.1110    2.0650    1.3460 H   0  0  0  0  0  0  0  0  0  0  0  0
    0.0000    0.0000    0.0000 H   0  0  0  0  0  0  0  0  0  0  0  0
   -1.8510   -1.6320    0.3320 H   0  0  0  0  0  0  0  0  0  0  0  0
  1  2  1  0  0  0  0
  1 11  1  0  0  0  0
  1 12  1  0  0  0  0
  1 13  1  0  0  0  0
  2  6  1  0  0  0  0
  2  3  2  0  0  0  0
  3  4  1  0  0  0  0
  3 14  1  0  0  0  0
  4  5  1  0  0  0  0
  4 15  1  0  0  0  0
  5 10  2  0  0  0  0
  5  6  1  0  0  0  0
  6  7  2  0  0  0  0
  7  8  1  0  0  0  0
  7 16  1  0  0  0  0
  8  9  2  0  0  0  0
  8 17  1  0  0  0  0
  9 10  1  0  0  0  0
  9 18  1  0  0  0  0
 10 19  1  0  0  0  0
M  END
>  <COMPND>
    mobley_1821184 

>  <AUTHOR>
    GENERATED BY OPEN BABEL 2.3.2

>  <MASTER>
        0    0    0    0    0    0    0    0   19    0   19    0

$$$$
