mobley_7463799.pdb
 OpenBabel09222014463D

 22 22  0  0  0  0  0  0  0  0999 V2000
    1.8850   -1.0360   -0.1120 C   0  0  0  0  0  0  0  0  0  0  0  0
    2.9210   -1.6310    0.6080 C   0  0  0  0  0  0  0  0  0  0  0  0
    2.8780   -1.6520    2.0020 C   0  0  0  0  0  0  0  0  0  0  0  0
    1.8000   -1.0790    2.6760 C   0  0  0  0  0  0  0  0  0  0  0  0
    0.7640   -0.4840    1.9550 C   0  0  0  0  0  0  0  0  0  0  0  0
    0.8070   -0.4630    0.5610 C   0  0  0  0  0  0  0  0  0  0  0  0
    1.7550   -1.1010    4.1660 C   0  0  0  0  0  0  0  0  0  0  0  0
    1.0510   -2.3550    4.7040 C   0  0  0  0  0  0  0  0  0  0  0  0
    1.0040   -2.3800    6.2250 C   0  0  0  0  0  0  0  0  0  0  0  0
    0.3410   -3.5640    6.6450 O   0  0  0  0  0  0  0  0  0  0  0  0
    1.9180   -1.0210   -1.1980 H   0  0  0  0  0  0  0  0  0  0  0  0
    3.7600   -2.0780    0.0840 H   0  0  0  0  0  0  0  0  0  0  0  0
    3.6900   -2.1170    2.5550 H   0  0  0  0  0  0  0  0  0  0  0  0
   -0.0800   -0.0350    2.4710 H   0  0  0  0  0  0  0  0  0  0  0  0
   -0.0010   -0.0010    0.0000 H   0  0  0  0  0  0  0  0  0  0  0  0
    1.2390   -0.2050    4.5520 H   0  0  0  0  0  0  0  0  0  0  0  0
    2.7750   -1.0540    4.5850 H   0  0  0  0  0  0  0  0  0  0  0  0
    1.5560   -3.2600    4.3420 H   0  0  0  0  0  0  0  0  0  0  0  0
    0.0280   -2.4150    4.3080 H   0  0  0  0  0  0  0  0  0  0  0  0
    2.0140   -2.3780    6.6470 H   0  0  0  0  0  0  0  0  0  0  0  0
    0.4540   -1.5160    6.6130 H   0  0  0  0  0  0  0  0  0  0  0  0
    0.3280   -3.5490    7.6160 H   0  0  0  0  0  0  0  0  0  0  0  0
  1  6  2  0  0  0  0
  1  2  1  0  0  0  0
  1 11  1  0  0  0  0
  2  3  2  0  0  0  0
  2 12  1  0  0  0  0
  3  4  1  0  0  0  0
  3 13  1  0  0  0  0
  4  5  2  0  0  0  0
  4  7  1  0  0  0  0
  5  6  1  0  0  0  0
  5 14  1  0  0  0  0
  6 15  1  0  0  0  0
  7  8  1  0  0  0  0
  7 16  1  0  0  0  0
  7 17  1  0  0  0  0
  8  9  1  0  0  0  0
  8 18  1  0  0  0  0
  8 19  1  0  0  0  0
  9 10  1  0  0  0  0
  9 20  1  0  0  0  0
  9 21  1  0  0  0  0
 10 22  1  0  0  0  0
M  END
>  <COMPND>
    mobley_7463799 

>  <AUTHOR>
    GENERATED BY OPEN BABEL 2.3.2

>  <MASTER>
        0    0    0    0    0    0    0    0   22    0   22    0

$$$$
