mobley_8260524.pdb
 OpenBabel09222014463D

  7  6  0  0  0  0  0  0  0  0999 V2000
   -0.7150    0.3700   -0.7410 C   0  0  0  0  0  0  0  0  0  0  0  0
   -0.6480    1.8280   -0.8450 C   0  0  0  0  0  0  0  0  0  0  0  0
   -0.5940    3.0240   -0.9300 C   0  0  0  0  0  0  0  0  0  0  0  0
    0.2430   -0.0840   -1.0130 H   0  0  0  0  0  0  0  0  0  0  0  0
   -0.9580    0.0640    0.2810 H   0  0  0  0  0  0  0  0  0  0  0  0
   -1.4830   -0.0330   -1.4070 H   0  0  0  0  0  0  0  0  0  0  0  0
   -0.5460    4.0850   -1.0060 H   0  0  0  0  0  0  0  0  0  0  0  0
  1  2  1  0  0  0  0
  1  4  1  0  0  0  0
  1  5  1  0  0  0  0
  1  6  1  0  0  0  0
  2  3  3  0  0  0  0
  3  7  1  0  0  0  0
M  END
>  <COMPND>
    mobley_8260524 

>  <AUTHOR>
    GENERATED BY OPEN BABEL 2.3.2

>  <MASTER>
        0    0    0    0    0    0    0    0    7    0    7    0

$$$$
