mobley_8772587.pdb
 OpenBabel09222014463D

 14 13  0  0  0  0  0  0  0  0999 V2000
   -0.0300    0.4280    1.0060 C   0  0  0  0  0  0  0  0  0  0  0  0
    0.7900   -0.4200    1.9650 C   0  0  0  0  0  0  0  0  0  0  0  0
    0.7700    0.1560    3.3810 C   0  0  0  0  0  0  0  0  0  0  0  0
    1.5980   -0.7030    4.3370 C   0  0  0  0  0  0  0  0  0  0  0  0
    1.5600    0.1150    6.3120 I   0  0  0  0  0  0  0  0  0  0  0  0
   -0.0110    0.0090   -0.0040 H   0  0  0  0  0  0  0  0  0  0  0  0
   -1.0730    0.4710    1.3360 H   0  0  0  0  0  0  0  0  0  0  0  0
    0.3530    1.4530    0.9620 H   0  0  0  0  0  0  0  0  0  0  0  0
    1.8230   -0.4770    1.6000 H   0  0  0  0  0  0  0  0  0  0  0  0
    0.3920   -1.4410    1.9720 H   0  0  0  0  0  0  0  0  0  0  0  0
    1.1630    1.1810    3.3630 H   0  0  0  0  0  0  0  0  0  0  0  0
   -0.2670    0.2180    3.7340 H   0  0  0  0  0  0  0  0  0  0  0  0
    2.6350   -0.7610    3.9880 H   0  0  0  0  0  0  0  0  0  0  0  0
    1.2040   -1.7250    4.3600 H   0  0  0  0  0  0  0  0  0  0  0  0
  1  2  1  0  0  0  0
  1  6  1  0  0  0  0
  1  7  1  0  0  0  0
  1  8  1  0  0  0  0
  2  3  1  0  0  0  0
  2  9  1  0  0  0  0
  2 10  1  0  0  0  0
  3  4  1  0  0  0  0
  3 11  1  0  0  0  0
  3 12  1  0  0  0  0
  4  5  1  0  0  0  0
  4 13  1  0  0  0  0
  4 14  1  0  0  0  0
M  END
>  <COMPND>
    mobley_8772587 

>  <AUTHOR>
    GENERATED BY OPEN BABEL 2.3.2

>  <MASTER>
        0    0    0    0    0    0    0    0   14    0   14    0

$$$$
