mobley_7774695.pdb
 OpenBabel09222014463D

 17 17  0  0  0  0  0  0  0  0999 V2000
    3.0050   -1.5810   -2.2990 C   0  0  0  0  0  0  0  0  0  0  0  0
    1.9290   -1.0140   -1.5220 N   0  0  0  0  0  0  0  0  0  0  0  0
    1.8850   -1.0360   -0.1120 C   0  0  0  0  0  0  0  0  0  0  0  0
    2.9210   -1.6310    0.6080 C   0  0  0  0  0  0  0  0  0  0  0  0
    2.8780   -1.6520    2.0020 C   0  0  0  0  0  0  0  0  0  0  0  0
    1.8000   -1.0790    2.6760 C   0  0  0  0  0  0  0  0  0  0  0  0
    0.7640   -0.4840    1.9550 C   0  0  0  0  0  0  0  0  0  0  0  0
    0.8070   -0.4630    0.5610 C   0  0  0  0  0  0  0  0  0  0  0  0
    2.8130   -1.4400   -3.3660 H   0  0  0  0  0  0  0  0  0  0  0  0
    3.0940   -2.6520   -2.0960 H   0  0  0  0  0  0  0  0  0  0  0  0
    3.9520   -1.0970   -2.0450 H   0  0  0  0  0  0  0  0  0  0  0  0
    1.1620   -0.5740   -2.0180 H   0  0  0  0  0  0  0  0  0  0  0  0
    3.7670   -2.0800    0.0930 H   0  0  0  0  0  0  0  0  0  0  0  0
    3.6850   -2.1140    2.5640 H   0  0  0  0  0  0  0  0  0  0  0  0
    1.7660   -1.0950    3.7610 H   0  0  0  0  0  0  0  0  0  0  0  0
   -0.0750   -0.0370    2.4790 H   0  0  0  0  0  0  0  0  0  0  0  0
   -0.0060    0.0030    0.0090 H   0  0  0  0  0  0  0  0  0  0  0  0
  1  2  1  0  0  0  0
  1  9  1  0  0  0  0
  1 10  1  0  0  0  0
  1 11  1  0  0  0  0
  2  3  1  0  0  0  0
  2 12  1  0  0  0  0
  3  8  2  0  0  0  0
  3  4  1  0  0  0  0
  4  5  2  0  0  0  0
  4 13  1  0  0  0  0
  5  6  1  0  0  0  0
  5 14  1  0  0  0  0
  6  7  2  0  0  0  0
  6 15  1  0  0  0  0
  7  8  1  0  0  0  0
  7 16  1  0  0  0  0
  8 17  1  0  0  0  0
M  END
>  <COMPND>
    mobley_7774695 

>  <AUTHOR>
    GENERATED BY OPEN BABEL 2.3.2

>  <MASTER>
        0    0    0    0    0    0    0    0   17    0   17    0

$$$$
