mobley_8052240.pdb
 OpenBabel09222014463D

 26 28  0  0  0  0  0  0  0  0999 V2000
    1.2900   -1.6870   -0.3520 C   0  0  0  0  0  0  0  0  0  0  0  0
    0.9560   -0.4630    0.2260 C   0  0  0  0  0  0  0  0  0  0  0  0
    1.8480    0.1680    1.0930 C   0  0  0  0  0  0  0  0  0  0  0  0
    3.0810   -0.4280    1.3840 C   0  0  0  0  0  0  0  0  0  0  0  0
    3.4160   -1.6540    0.8060 C   0  0  0  0  0  0  0  0  0  0  0  0
    2.5180   -2.2840   -0.0640 C   0  0  0  0  0  0  0  0  0  0  0  0
    4.7130   -2.2940    1.1040 C   0  0  0  0  0  0  0  0  0  0  0  0
    5.0080   -3.3690    0.5970 O   0  0  0  0  0  0  0  0  0  0  0  0
    5.6520   -1.6180    2.0240 C   0  0  0  0  0  0  0  0  0  0  0  0
    6.8850   -2.2140    2.3150 C   0  0  0  0  0  0  0  0  0  0  0  0
    7.7770   -1.5830    3.1820 C   0  0  0  0  0  0  0  0  0  0  0  0
    7.4420   -0.3590    3.7590 C   0  0  0  0  0  0  0  0  0  0  0  0
    6.2150    0.2380    3.4720 C   0  0  0  0  0  0  0  0  0  0  0  0
    5.3170   -0.3920    2.6020 C   0  0  0  0  0  0  0  0  0  0  0  0
    4.0190    0.2480    2.3040 C   0  0  0  0  0  0  0  0  0  0  0  0
    3.6910    1.3220    2.7910 O   0  0  0  0  0  0  0  0  0  0  0  0
    5.9470    1.4790    4.0950 N   0  0  0  0  0  0  0  0  0  0  0  0
    0.5940   -2.1760   -1.0260 H   0  0  0  0  0  0  0  0  0  0  0  0
    0.0000    0.0000    0.0000 H   0  0  0  0  0  0  0  0  0  0  0  0
    1.5620    1.1220    1.5280 H   0  0  0  0  0  0  0  0  0  0  0  0
    2.7550   -3.2380   -0.5270 H   0  0  0  0  0  0  0  0  0  0  0  0
    7.1680   -3.1670    1.8780 H   0  0  0  0  0  0  0  0  0  0  0  0
    8.7330   -2.0450    3.4070 H   0  0  0  0  0  0  0  0  0  0  0  0
    8.1490    0.1190    4.4330 H   0  0  0  0  0  0  0  0  0  0  0  0
    5.0990    1.9580    3.8760 H   0  0  0  0  0  0  0  0  0  0  0  0
    6.6510    1.8950    4.6680 H   0  0  0  0  0  0  0  0  0  0  0  0
  1  6  2  0  0  0  0
  1  2  1  0  0  0  0
  1 18  1  0  0  0  0
  2  3  2  0  0  0  0
  2 19  1  0  0  0  0
  3  4  1  0  0  0  0
  3 20  1  0  0  0  0
  4 15  1  0  0  0  0
  4  5  2  0  0  0  0
  5  6  1  0  0  0  0
  5  7  1  0  0  0  0
  6 21  1  0  0  0  0
  7  8  2  0  0  0  0
  7  9  1  0  0  0  0
  9 14  2  0  0  0  0
  9 10  1  0  0  0  0
 10 11  2  0  0  0  0
 10 22  1  0  0  0  0
 11 12  1  0  0  0  0
 11 23  1  0  0  0  0
 12 13  2  0  0  0  0
 12 24  1  0  0  0  0
 13 14  1  0  0  0  0
 13 17  1  0  0  0  0
 14 15  1  0  0  0  0
 15 16  2  0  0  0  0
 17 25  1  0  0  0  0
 17 26  1  0  0  0  0
M  END
>  <COMPND>
    mobley_8052240 

>  <AUTHOR>
    GENERATED BY OPEN BABEL 2.3.2

>  <MASTER>
        0    0    0    0    0    0    0    0   26    0   26    0

$$$$
