mobley_7913234.pdb
 OpenBabel09222014463D

 25 24  0  0  1  0  0  0  0  0999 V2000
    0.3900   -1.0210   -0.0850 C   0  0  0  0  0  0  0  0  0  0  0  0
   -0.5800   -2.0240    0.5200 C   0  0  0  0  0  0  0  0  0  0  0  0
   -1.9310   -1.9920   -0.1890 C   0  0  0  0  0  0  0  0  0  0  0  0
   -2.9050   -2.9950    0.4140 C   0  0  0  0  0  0  0  0  0  0  0  0
   -4.1380   -2.9160   -0.2880 O   0  0  0  0  0  0  0  0  0  0  0  0
   -5.0930   -3.8320    0.2300 C   0  0  0  0  0  0  0  0  0  0  0  0
   -6.3890   -3.6990   -0.5610 C   0  0  2  0  0  0  0  0  0  0  0  0
   -6.5920   -2.6440   -0.7770 H   0  0  0  0  0  0  0  0  0  0  0  0
   -7.5610   -4.3270    0.1770 C   0  0  0  0  0  0  0  0  0  0  0  0
   -6.2200   -4.3670   -1.8110 O   0  0  0  0  0  0  0  0  0  0  0  0
    1.3560   -1.0500    0.4300 H   0  0  0  0  0  0  0  0  0  0  0  0
    0.5590   -1.2300   -1.1460 H   0  0  0  0  0  0  0  0  0  0  0  0
   -0.0110   -0.0060    0.0030 H   0  0  0  0  0  0  0  0  0  0  0  0
   -0.1470   -3.0290    0.4520 H   0  0  0  0  0  0  0  0  0  0  0  0
   -0.7120   -1.7990    1.5850 H   0  0  0  0  0  0  0  0  0  0  0  0
   -2.3650   -0.9870   -0.1340 H   0  0  0  0  0  0  0  0  0  0  0  0
   -1.8040   -2.2070   -1.2570 H   0  0  0  0  0  0  0  0  0  0  0  0
   -2.5190   -4.0160    0.3260 H   0  0  0  0  0  0  0  0  0  0  0  0
   -3.0900   -2.7730    1.4700 H   0  0  0  0  0  0  0  0  0  0  0  0
   -5.2500   -3.5950    1.2880 H   0  0  0  0  0  0  0  0  0  0  0  0
   -4.6810   -4.8430    0.1420 H   0  0  0  0  0  0  0  0  0  0  0  0
   -8.4820   -4.2220   -0.4060 H   0  0  0  0  0  0  0  0  0  0  0  0
   -7.3890   -5.3910    0.3650 H   0  0  0  0  0  0  0  0  0  0  0  0
   -7.7370   -3.8240    1.1350 H   0  0  0  0  0  0  0  0  0  0  0  0
   -5.4830   -3.9260   -2.2600 H   0  0  0  0  0  0  0  0  0  0  0  0
  1  2  1  0  0  0  0
  1 11  1  0  0  0  0
  1 12  1  0  0  0  0
  1 13  1  0  0  0  0
  2  3  1  0  0  0  0
  2 14  1  0  0  0  0
  2 15  1  0  0  0  0
  3  4  1  0  0  0  0
  3 16  1  0  0  0  0
  3 17  1  0  0  0  0
  4  5  1  0  0  0  0
  4 18  1  0  0  0  0
  4 19  1  0  0  0  0
  5  6  1  0  0  0  0
  6  7  1  0  0  0  0
  6 20  1  0  0  0  0
  6 21  1  0  0  0  0
  7  8  1  6  0  0  0
  7  9  1  0  0  0  0
  7 10  1  0  0  0  0
  9 22  1  0  0  0  0
  9 23  1  0  0  0  0
  9 24  1  0  0  0  0
 10 25  1  0  0  0  0
M  END
>  <COMPND>
    mobley_7913234 

>  <AUTHOR>
    GENERATED BY OPEN BABEL 2.3.2

>  <MASTER>
        0    0    0    0    0    0    0    0   25    0   25    0

$$$$
