mobley_1849020.pdb
 OpenBabel09222014463D

 34 34  0  0  0  0  0  0  0  0999 V2000
    2.1820   -0.5070   -0.4910 C   0  0  0  0  0  0  0  0  0  0  0  0
    0.7670   -0.6300    0.0320 C   0  0  0  0  0  0  0  0  0  0  0  0
    0.5070   -1.9880    0.3460 O   0  0  0  0  0  0  0  0  0  0  0  0
   -0.9520   -2.4350    0.9360 P   0  0  0  0  0  0  0  0  0  0  0  0
   -2.4090   -2.0110   -0.3080 S   0  0  0  0  0  0  0  0  0  0  0  0
   -0.6710   -4.0430    1.0400 O   0  0  0  0  0  0  0  0  0  0  0  0
   -1.6800   -4.9160    1.5200 C   0  0  0  0  0  0  0  0  0  0  0  0
   -1.1510   -6.3350    1.5090 C   0  0  0  0  0  0  0  0  0  0  0  0
   -1.0650   -1.6990    2.9280 S   0  0  0  0  0  0  0  0  0  0  0  0
    0.3130   -2.4840    3.8030 C   0  0  0  0  0  0  0  0  0  0  0  0
    0.3960   -1.9800    5.5490 S   0  0  0  0  0  0  0  0  0  0  0  0
    1.8220   -2.9070    6.1020 C   0  0  0  0  0  0  0  0  0  0  0  0
    2.2480   -2.8070    7.4270 C   0  0  0  0  0  0  0  0  0  0  0  0
    3.3600   -3.5310    7.8580 C   0  0  0  0  0  0  0  0  0  0  0  0
    4.0460   -4.3540    6.9650 C   0  0  0  0  0  0  0  0  0  0  0  0
    3.6190   -4.4540    5.6410 C   0  0  0  0  0  0  0  0  0  0  0  0
    2.5070   -3.7310    5.2090 C   0  0  0  0  0  0  0  0  0  0  0  0
    5.4170   -5.2470    7.4970 Cl  0  0  0  0  0  0  0  0  0  0  0  0
    2.4170    0.5310   -0.7430 H   0  0  0  0  0  0  0  0  0  0  0  0
    2.9010   -0.8600    0.2560 H   0  0  0  0  0  0  0  0  0  0  0  0
    2.3200   -1.1270   -1.3830 H   0  0  0  0  0  0  0  0  0  0  0  0
    0.0490   -0.2990   -0.7250 H   0  0  0  0  0  0  0  0  0  0  0  0
    0.6370   -0.0280    0.9360 H   0  0  0  0  0  0  0  0  0  0  0  0
   -1.9520   -4.6170    2.5370 H   0  0  0  0  0  0  0  0  0  0  0  0
   -2.5600   -4.8300    0.8750 H   0  0  0  0  0  0  0  0  0  0  0  0
   -1.9060   -7.0370    1.8750 H   0  0  0  0  0  0  0  0  0  0  0  0
   -0.8570   -6.6290    0.4960 H   0  0  0  0  0  0  0  0  0  0  0  0
   -0.2580   -6.4190    2.1370 H   0  0  0  0  0  0  0  0  0  0  0  0
    1.2540   -2.2710    3.2900 H   0  0  0  0  0  0  0  0  0  0  0  0
    0.1620   -3.5670    3.7740 H   0  0  0  0  0  0  0  0  0  0  0  0
    1.7270   -2.1710    8.1370 H   0  0  0  0  0  0  0  0  0  0  0  0
    3.6810   -3.4430    8.8930 H   0  0  0  0  0  0  0  0  0  0  0  0
    4.1440   -5.0920    4.9340 H   0  0  0  0  0  0  0  0  0  0  0  0
    2.1900   -3.8220    4.1730 H   0  0  0  0  0  0  0  0  0  0  0  0
  1  2  1  0  0  0  0
  1 19  1  0  0  0  0
  1 20  1  0  0  0  0
  1 21  1  0  0  0  0
  2  3  1  0  0  0  0
  2 22  1  0  0  0  0
  2 23  1  0  0  0  0
  3  4  1  0  0  0  0
  4  5  1  0  0  0  0
  4  6  1  0  0  0  0
  4  9  1  0  0  0  0
  6  7  1  0  0  0  0
  7  8  1  0  0  0  0
  7 24  1  0  0  0  0
  7 25  1  0  0  0  0
  8 26  1  0  0  0  0
  8 27  1  0  0  0  0
  8 28  1  0  0  0  0
  9 10  1  0  0  0  0
 10 11  1  0  0  0  0
 10 29  1  0  0  0  0
 10 30  1  0  0  0  0
 11 12  1  0  0  0  0
 12 17  2  0  0  0  0
 12 13  1  0  0  0  0
 13 14  2  0  0  0  0
 13 31  1  0  0  0  0
 14 15  1  0  0  0  0
 14 32  1  0  0  0  0
 15 16  2  0  0  0  0
 15 18  1  0  0  0  0
 16 17  1  0  0  0  0
 16 33  1  0  0  0  0
 17 34  1  0  0  0  0
M  END
>  <COMPND>
    mobley_1849020 

>  <AUTHOR>
    GENERATED BY OPEN BABEL 2.3.2

>  <MASTER>
        0    0    0    0    0    0    0    0   34    0   34    0

$$$$
