mobley_4884177.pdb
 OpenBabel09222014463D

 17 17  0  0  0  0  0  0  0  0999 V2000
    2.6690    0.9360    4.5560 C   0  0  0  0  0  0  0  0  0  0  0  0
    2.8850   -0.2670    3.6510 C   0  0  0  0  0  0  0  0  0  0  0  0
    1.6520   -0.6230    2.9000 C   0  0  0  0  0  0  0  0  0  0  0  0
    1.3880   -0.0680    1.6520 C   0  0  0  0  0  0  0  0  0  0  0  0
    0.2270   -0.4200    0.9730 C   0  0  0  0  0  0  0  0  0  0  0  0
   -0.6320   -1.3220    1.5800 C   0  0  0  0  0  0  0  0  0  0  0  0
   -0.4090   -1.8820    2.7910 N   0  0  0  0  0  0  0  0  0  0  0  0
    0.7300   -1.5160    3.4210 C   0  0  0  0  0  0  0  0  0  0  0  0
    3.5820    1.1910    5.1040 H   0  0  0  0  0  0  0  0  0  0  0  0
    1.8830    0.7230    5.2870 H   0  0  0  0  0  0  0  0  0  0  0  0
    2.3660    1.8180    3.9800 H   0  0  0  0  0  0  0  0  0  0  0  0
    3.2150   -1.1250    4.2480 H   0  0  0  0  0  0  0  0  0  0  0  0
    3.7000   -0.0580    2.9460 H   0  0  0  0  0  0  0  0  0  0  0  0
    2.0810    0.6370    1.2020 H   0  0  0  0  0  0  0  0  0  0  0  0
    0.0000    0.0000    0.0000 H   0  0  0  0  0  0  0  0  0  0  0  0
   -1.5510   -1.6290    1.0920 H   0  0  0  0  0  0  0  0  0  0  0  0
    0.8820   -1.9810    4.3900 H   0  0  0  0  0  0  0  0  0  0  0  0
  1  2  1  0  0  0  0
  1  9  1  0  0  0  0
  1 10  1  0  0  0  0
  1 11  1  0  0  0  0
  2  3  1  0  0  0  0
  2 12  1  0  0  0  0
  2 13  1  0  0  0  0
  3  8  2  0  0  0  0
  3  4  1  0  0  0  0
  4  5  2  0  0  0  0
  4 14  1  0  0  0  0
  5  6  1  0  0  0  0
  5 15  1  0  0  0  0
  6  7  2  0  0  0  0
  6 16  1  0  0  0  0
  7  8  1  0  0  0  0
  8 17  1  0  0  0  0
M  END
>  <COMPND>
    mobley_4884177 

>  <AUTHOR>
    GENERATED BY OPEN BABEL 2.3.2

>  <MASTER>
        0    0    0    0    0    0    0    0   17    0   17    0

$$$$
