mobley_2068538.pdb
 OpenBabel09222014463D

 11 10  0  0  0  0  0  0  0  0999 V2000
   -0.5530   -0.2790    0.9030 C   0  0  0  0  0  0  0  0  0  0  0  0
    0.3850   -0.4430    2.0870 C   0  0  0  0  0  0  0  0  0  0  0  0
    1.1310    0.8190    2.3890 C   0  0  0  0  0  0  0  0  0  0  0  0
   -1.0900   -1.2100    0.6960 H   0  0  0  0  0  0  0  0  0  0  0  0
   -1.2980    0.5000    1.0970 H   0  0  0  0  0  0  0  0  0  0  0  0
    0.0090    0.0000    0.0060 H   0  0  0  0  0  0  0  0  0  0  0  0
   -0.1910   -0.7420    2.9700 H   0  0  0  0  0  0  0  0  0  0  0  0
    1.1010   -1.2440    1.8770 H   0  0  0  0  0  0  0  0  0  0  0  0
    1.7960    0.6630    3.2470 H   0  0  0  0  0  0  0  0  0  0  0  0
    0.4380    1.6290    2.6400 H   0  0  0  0  0  0  0  0  0  0  0  0
    1.7440    1.1210    1.5340 H   0  0  0  0  0  0  0  0  0  0  0  0
  1  2  1  0  0  0  0
  1  4  1  0  0  0  0
  1  5  1  0  0  0  0
  1  6  1  0  0  0  0
  2  3  1  0  0  0  0
  2  7  1  0  0  0  0
  2  8  1  0  0  0  0
  3  9  1  0  0  0  0
  3 10  1  0  0  0  0
  3 11  1  0  0  0  0
M  END
>  <COMPND>
    mobley_2068538 

>  <AUTHOR>
    GENERATED BY OPEN BABEL 2.3.2

>  <MASTER>
        0    0    0    0    0    0    0    0   11    0   11    0

$$$$
