mobley_2341732.pdb
 OpenBabel09222014463D

 20 19  0  0  0  0  0  0  0  0999 V2000
   -0.5100    0.9070    0.3410 C   0  0  0  0  0  0  0  0  0  0  0  0
   -0.5740    0.9570    1.8590 C   0  0  0  0  0  0  0  0  0  0  0  0
    0.8240    0.9590    2.4780 C   0  0  0  0  0  0  0  0  0  0  0  0
    0.7560    1.0090    4.0030 C   0  0  0  0  0  0  0  0  0  0  0  0
    2.1310    1.0110    4.6320 C   0  0  0  0  0  0  0  0  0  0  0  0
    3.1880    0.9770    4.0170 O   0  0  0  0  0  0  0  0  0  0  0  0
    1.9960    1.0550    5.9900 O   0  0  0  0  0  0  0  0  0  0  0  0
    3.2200    1.0610    6.7320 C   0  0  0  0  0  0  0  0  0  0  0  0
   -1.5140    0.9070   -0.0940 H   0  0  0  0  0  0  0  0  0  0  0  0
    0.0360    1.7680   -0.0570 H   0  0  0  0  0  0  0  0  0  0  0  0
    0.0030   -0.0020    0.0130 H   0  0  0  0  0  0  0  0  0  0  0  0
   -1.1190    1.8570    2.1670 H   0  0  0  0  0  0  0  0  0  0  0  0
   -1.1410    0.0930    2.2230 H   0  0  0  0  0  0  0  0  0  0  0  0
    1.3930    1.8200    2.1050 H   0  0  0  0  0  0  0  0  0  0  0  0
    1.3690    0.0610    2.1620 H   0  0  0  0  0  0  0  0  0  0  0  0
    0.2110    0.1350    4.3780 H   0  0  0  0  0  0  0  0  0  0  0  0
    0.2340    1.9190    4.3200 H   0  0  0  0  0  0  0  0  0  0  0  0
    2.9850    1.0970    7.7940 H   0  0  0  0  0  0  0  0  0  0  0  0
    3.8040    1.9290    6.4360 H   0  0  0  0  0  0  0  0  0  0  0  0
    3.7620    0.1470    6.5000 H   0  0  0  0  0  0  0  0  0  0  0  0
  1  2  1  0  0  0  0
  1  9  1  0  0  0  0
  1 10  1  0  0  0  0
  1 11  1  0  0  0  0
  2  3  1  0  0  0  0
  2 12  1  0  0  0  0
  2 13  1  0  0  0  0
  3  4  1  0  0  0  0
  3 14  1  0  0  0  0
  3 15  1  0  0  0  0
  4  5  1  0  0  0  0
  4 16  1  0  0  0  0
  4 17  1  0  0  0  0
  5  6  2  0  0  0  0
  5  7  1  0  0  0  0
  7  8  1  0  0  0  0
  8 18  1  0  0  0  0
  8 19  1  0  0  0  0
  8 20  1  0  0  0  0
M  END
>  <COMPND>
    mobley_2341732 

>  <AUTHOR>
    GENERATED BY OPEN BABEL 2.3.2

>  <MASTER>
        0    0    0    0    0    0    0    0   20    0   20    0

$$$$
