mobley_8668219.pdb
 OpenBabel09222014463D

 23 22  0  0  1  0  0  0  0  0999 V2000
   -2.0670    1.4400   -0.3330 C   0  0  0  0  0  0  0  0  0  0  0  0
   -0.7810    1.0760   -1.0620 C   0  0  0  0  0  0  0  0  0  0  0  0
   -0.1970   -0.2980   -0.6630 C   0  0  1  0  0  0  0  0  0  0  0  0
   -0.9610   -1.0510   -0.9030 H   0  0  0  0  0  0  0  0  0  0  0  0
    1.0130   -0.5960   -1.5590 C   0  0  0  0  0  0  0  0  0  0  0  0
    0.1140   -0.4340    0.8550 C   0  0  0  0  0  0  0  0  0  0  0  0
    0.6910   -1.8130    1.2000 C   0  0  0  0  0  0  0  0  0  0  0  0
    1.0390    0.6570    1.4000 C   0  0  0  0  0  0  0  0  0  0  0  0
   -2.4200    2.4220   -0.6650 H   0  0  0  0  0  0  0  0  0  0  0  0
   -1.9150    1.4970    0.7490 H   0  0  0  0  0  0  0  0  0  0  0  0
   -2.8560    0.7100   -0.5380 H   0  0  0  0  0  0  0  0  0  0  0  0
   -0.9990    1.0660   -2.1380 H   0  0  0  0  0  0  0  0  0  0  0  0
   -0.0410    1.8700   -0.9090 H   0  0  0  0  0  0  0  0  0  0  0  0
    1.4670   -1.5620   -1.3190 H   0  0  0  0  0  0  0  0  0  0  0  0
    1.7840    0.1720   -1.4300 H   0  0  0  0  0  0  0  0  0  0  0  0
    0.7400   -0.5970   -2.6190 H   0  0  0  0  0  0  0  0  0  0  0  0
   -0.8350   -0.3610    1.4000 H   0  0  0  0  0  0  0  0  0  0  0  0
    0.9010   -1.8820    2.2730 H   0  0  0  0  0  0  0  0  0  0  0  0
    1.6290   -2.0090    0.6700 H   0  0  0  0  0  0  0  0  0  0  0  0
   -0.0200   -2.6080    0.9500 H   0  0  0  0  0  0  0  0  0  0  0  0
    1.2190    0.5060    2.4700 H   0  0  0  0  0  0  0  0  0  0  0  0
    2.0120    0.6530    0.8990 H   0  0  0  0  0  0  0  0  0  0  0  0
    0.5980    1.6520    1.2860 H   0  0  0  0  0  0  0  0  0  0  0  0
  1  2  1  0  0  0  0
  1  9  1  0  0  0  0
  1 10  1  0  0  0  0
  1 11  1  0  0  0  0
  2  3  1  0  0  0  0
  2 12  1  0  0  0  0
  2 13  1  0  0  0  0
  3  4  1  6  0  0  0
  3  5  1  0  0  0  0
  3  6  1  0  0  0  0
  5 14  1  0  0  0  0
  5 15  1  0  0  0  0
  5 16  1  0  0  0  0
  6  7  1  0  0  0  0
  6  8  1  0  0  0  0
  6 17  1  0  0  0  0
  7 18  1  0  0  0  0
  7 19  1  0  0  0  0
  7 20  1  0  0  0  0
  8 21  1  0  0  0  0
  8 22  1  0  0  0  0
  8 23  1  0  0  0  0
M  END
>  <COMPND>
    mobley_8668219 

>  <AUTHOR>
    GENERATED BY OPEN BABEL 2.3.2

>  <MASTER>
        0    0    0    0    0    0    0    0   23    0   23    0

$$$$
