mobley_5286200.pdb
 OpenBabel09222014463D

 14 13  0  0  0  0  0  0  0  0999 V2000
   -0.4600   -0.1430   -0.5980 C   0  0  0  0  0  0  0  0  0  0  0  0
    0.4210    0.1210    0.6300 C   0  0  0  0  0  0  0  0  0  0  0  0
    1.4010   -1.0120    0.9190 C   0  0  0  0  0  0  0  0  0  0  0  0
    2.4070   -0.6760    2.3480 Cl  0  0  0  0  0  0  0  0  0  0  0  0
   -1.4400    0.9900   -0.8870 C   0  0  0  0  0  0  0  0  0  0  0  0
   -2.4460    0.6540   -2.3150 Cl  0  0  0  0  0  0  0  0  0  0  0  0
    0.1610   -0.3220   -1.4830 H   0  0  0  0  0  0  0  0  0  0  0  0
   -1.0380   -1.0590   -0.4270 H   0  0  0  0  0  0  0  0  0  0  0  0
    0.9740    1.0600    0.5110 H   0  0  0  0  0  0  0  0  0  0  0  0
   -0.2250    0.2450    1.5080 H   0  0  0  0  0  0  0  0  0  0  0  0
    2.0690   -1.1840    0.0690 H   0  0  0  0  0  0  0  0  0  0  0  0
    0.8560   -1.9390    1.1190 H   0  0  0  0  0  0  0  0  0  0  0  0
   -2.1180    1.1250   -0.0390 H   0  0  0  0  0  0  0  0  0  0  0  0
   -0.9150    1.9350   -1.0580 H   0  0  0  0  0  0  0  0  0  0  0  0
  1  2  1  0  0  0  0
  1  5  1  0  0  0  0
  1  7  1  0  0  0  0
  1  8  1  0  0  0  0
  2  3  1  0  0  0  0
  2  9  1  0  0  0  0
  2 10  1  0  0  0  0
  3  4  1  0  0  0  0
  3 11  1  0  0  0  0
  3 12  1  0  0  0  0
  5  6  1  0  0  0  0
  5 13  1  0  0  0  0
  5 14  1  0  0  0  0
M  END
>  <COMPND>
    mobley_5286200 

>  <AUTHOR>
    GENERATED BY OPEN BABEL 2.3.2

>  <MASTER>
        0    0    0    0    0    0    0    0   14    0   14    0

$$$$
