mobley_1881249.pdb
 OpenBabel09222014463D

 16 15  0  0  0  0  0  0  0  0999 V2000
    1.8920   -0.6090   -4.8580 C   0  0  0  0  0  0  0  0  0  0  0  0
    1.0380    0.3830   -4.0850 C   0  0  0  0  0  0  0  0  0  0  0  0
    1.1480    0.1610   -2.5790 C   0  0  0  0  0  0  0  0  0  0  0  0
    0.3030    1.1400   -1.7830 C   0  0  0  0  0  0  0  0  0  0  0  0
   -0.3870    2.0100   -2.3110 O   0  0  0  0  0  0  0  0  0  0  0  0
    0.3520    0.9910   -0.2840 C   0  0  0  0  0  0  0  0  0  0  0  0
    1.8070   -0.4420   -5.9360 H   0  0  0  0  0  0  0  0  0  0  0  0
    1.5870   -1.6380   -4.6450 H   0  0  0  0  0  0  0  0  0  0  0  0
    2.9450   -0.5010   -4.5790 H   0  0  0  0  0  0  0  0  0  0  0  0
   -0.0070    0.2850   -4.4020 H   0  0  0  0  0  0  0  0  0  0  0  0
    1.3510    1.4030   -4.3360 H   0  0  0  0  0  0  0  0  0  0  0  0
    0.8160   -0.8530   -2.3260 H   0  0  0  0  0  0  0  0  0  0  0  0
    2.1890    0.2770   -2.2590 H   0  0  0  0  0  0  0  0  0  0  0  0
    1.1580    1.6090    0.1190 H   0  0  0  0  0  0  0  0  0  0  0  0
    0.5140   -0.0580   -0.0250 H   0  0  0  0  0  0  0  0  0  0  0  0
   -0.5970    1.3200    0.1510 H   0  0  0  0  0  0  0  0  0  0  0  0
  1  2  1  0  0  0  0
  1  7  1  0  0  0  0
  1  8  1  0  0  0  0
  1  9  1  0  0  0  0
  2  3  1  0  0  0  0
  2 10  1  0  0  0  0
  2 11  1  0  0  0  0
  3  4  1  0  0  0  0
  3 12  1  0  0  0  0
  3 13  1  0  0  0  0
  4  5  2  0  0  0  0
  4  6  1  0  0  0  0
  6 14  1  0  0  0  0
  6 15  1  0  0  0  0
  6 16  1  0  0  0  0
M  END
>  <COMPND>
    mobley_1881249 

>  <AUTHOR>
    GENERATED BY OPEN BABEL 2.3.2

>  <MASTER>
        0    0    0    0    0    0    0    0   16    0   16    0

$$$$
