mobley_7010316.pdb
 OpenBabel09222014463D

 19 19  0  0  0  0  0  0  0  0999 V2000
    0.8600   -0.5760   -0.3650 C   0  0  0  0  0  0  0  0  0  0  0  0
    1.9980   -0.4820    0.6480 C   0  0  0  0  0  0  0  0  0  0  0  0
    2.5550    0.9350    0.7370 C   0  0  0  0  0  0  0  0  0  0  0  0
    2.9750    1.4610   -0.6340 C   0  0  0  0  0  0  0  0  0  0  0  0
    1.8340    1.3680   -1.6460 C   0  0  0  0  0  0  0  0  0  0  0  0
    1.2770   -0.0490   -1.7360 C   0  0  0  0  0  0  0  0  0  0  0  0
    3.4010    2.8140   -0.5170 O   0  0  0  0  0  0  0  0  0  0  0  0
    0.0000    0.0000    0.0000 H   0  0  0  0  0  0  0  0  0  0  0  0
    0.5300   -1.6170   -0.4540 H   0  0  0  0  0  0  0  0  0  0  0  0
    1.6430   -0.8030    1.6340 H   0  0  0  0  0  0  0  0  0  0  0  0
    2.8010   -1.1710    0.3580 H   0  0  0  0  0  0  0  0  0  0  0  0
    1.8030    1.6030    1.1760 H   0  0  0  0  0  0  0  0  0  0  0  0
    3.4100    0.9620    1.4230 H   0  0  0  0  0  0  0  0  0  0  0  0
    3.8350    0.8750   -0.9980 H   0  0  0  0  0  0  0  0  0  0  0  0
    1.0340    2.0670   -1.3670 H   0  0  0  0  0  0  0  0  0  0  0  0
    2.1830    1.6970   -2.6330 H   0  0  0  0  0  0  0  0  0  0  0  0
    0.4170   -0.0660   -2.4150 H   0  0  0  0  0  0  0  0  0  0  0  0
    2.0380   -0.7130   -2.1650 H   0  0  0  0  0  0  0  0  0  0  0  0
    3.6560    3.1040   -1.4070 H   0  0  0  0  0  0  0  0  0  0  0  0
  1  6  1  0  0  0  0
  1  2  1  0  0  0  0
  1  8  1  0  0  0  0
  1  9  1  0  0  0  0
  2  3  1  0  0  0  0
  2 10  1  0  0  0  0
  2 11  1  0  0  0  0
  3  4  1  0  0  0  0
  3 12  1  0  0  0  0
  3 13  1  0  0  0  0
  4  5  1  0  0  0  0
  4  7  1  0  0  0  0
  4 14  1  0  0  0  0
  5  6  1  0  0  0  0
  5 15  1  0  0  0  0
  5 16  1  0  0  0  0
  6 17  1  0  0  0  0
  6 18  1  0  0  0  0
  7 19  1  0  0  0  0
M  END
>  <COMPND>
    mobley_7010316 

>  <AUTHOR>
    GENERATED BY OPEN BABEL 2.3.2

>  <MASTER>
        0    0    0    0    0    0    0    0   19    0   19    0

$$$$
