mobley_1449384.pdb
 OpenBabel09222014463D

 24 24  0  0  0  0  0  0  0  0999 V2000
    1.9310   -1.0130   -1.6030 C   0  0  0  0  0  0  0  0  0  0  0  0
    1.8850   -1.0360   -0.1120 C   0  0  0  0  0  0  0  0  0  0  0  0
    2.9210   -1.6310    0.6080 C   0  0  0  0  0  0  0  0  0  0  0  0
    2.8780   -1.6520    2.0020 C   0  0  0  0  0  0  0  0  0  0  0  0
    1.8000   -1.0790    2.6760 C   0  0  0  0  0  0  0  0  0  0  0  0
    0.7640   -0.4840    1.9550 C   0  0  0  0  0  0  0  0  0  0  0  0
    0.8070   -0.4630    0.5610 C   0  0  0  0  0  0  0  0  0  0  0  0
    1.7530   -1.1040    4.1660 C   0  0  0  0  0  0  0  0  0  0  0  0
    0.5460   -1.8960    4.7040 C   0  0  0  0  0  0  0  0  0  0  0  0
    1.7660    0.3090    4.7800 C   0  0  0  0  0  0  0  0  0  0  0  0
    2.4380   -0.1080   -1.9480 H   0  0  0  0  0  0  0  0  0  0  0  0
    2.4630   -1.8880   -1.9910 H   0  0  0  0  0  0  0  0  0  0  0  0
    0.9200   -1.0360   -2.0250 H   0  0  0  0  0  0  0  0  0  0  0  0
    3.7650   -2.0800    0.0920 H   0  0  0  0  0  0  0  0  0  0  0  0
    3.6890   -2.1180    2.5550 H   0  0  0  0  0  0  0  0  0  0  0  0
   -0.0810   -0.0360    2.4720 H   0  0  0  0  0  0  0  0  0  0  0  0
   -0.0050    0.0020    0.0080 H   0  0  0  0  0  0  0  0  0  0  0  0
    2.6520   -1.6140    4.5610 H   0  0  0  0  0  0  0  0  0  0  0  0
    0.5260   -1.9050    5.7990 H   0  0  0  0  0  0  0  0  0  0  0  0
    0.5660   -2.9370    4.3640 H   0  0  0  0  0  0  0  0  0  0  0  0
   -0.3910   -1.4470    4.3570 H   0  0  0  0  0  0  0  0  0  0  0  0
    1.7300    0.2520    5.8730 H   0  0  0  0  0  0  0  0  0  0  0  0
    0.9040    0.8980    4.4470 H   0  0  0  0  0  0  0  0  0  0  0  0
    2.6710    0.8610    4.5030 H   0  0  0  0  0  0  0  0  0  0  0  0
  1  2  1  0  0  0  0
  1 11  1  0  0  0  0
  1 12  1  0  0  0  0
  1 13  1  0  0  0  0
  2  7  2  0  0  0  0
  2  3  1  0  0  0  0
  3  4  2  0  0  0  0
  3 14  1  0  0  0  0
  4  5  1  0  0  0  0
  4 15  1  0  0  0  0
  5  6  2  0  0  0  0
  5  8  1  0  0  0  0
  6  7  1  0  0  0  0
  6 16  1  0  0  0  0
  7 17  1  0  0  0  0
  8  9  1  0  0  0  0
  8 10  1  0  0  0  0
  8 18  1  0  0  0  0
  9 19  1  0  0  0  0
  9 20  1  0  0  0  0
  9 21  1  0  0  0  0
 10 22  1  0  0  0  0
 10 23  1  0  0  0  0
 10 24  1  0  0  0  0
M  END
>  <COMPND>
    mobley_1449384 

>  <AUTHOR>
    GENERATED BY OPEN BABEL 2.3.2

>  <MASTER>
        0    0    0    0    0    0    0    0   24    0   24    0

$$$$
