mobley_8311321.pdb
 OpenBabel09222014463D

  5  4  0  0  0  0  0  0  0  0999 V2000
   -0.0490    0.0730   -0.0580 C   0  0  0  0  0  0  0  0  0  0  0  0
   -0.9800   -0.8280   -0.4580 F   0  0  0  0  0  0  0  0  0  0  0  0
   -0.5370    0.6810    1.0510 F   0  0  0  0  0  0  0  0  0  0  0  0
    1.4670   -0.7420    0.3110 Cl  0  0  0  0  0  0  0  0  0  0  0  0
    0.0990    0.8160   -0.8460 H   0  0  0  0  0  0  0  0  0  0  0  0
  1  2  1  0  0  0  0
  1  3  1  0  0  0  0
  1  4  1  0  0  0  0
  1  5  1  0  0  0  0
M  END
>  <COMPND>
    mobley_8311321 

>  <AUTHOR>
    GENERATED BY OPEN BABEL 2.3.2

>  <MASTER>
        0    0    0    0    0    0    0    0    5    0    5    0

$$$$
