mobley_5692472.pdb
 OpenBabel09222014463D

 10  9  0  0  0  0  0  0  0  0999 V2000
    1.0280    0.1350    0.3510 C   0  0  0  0  0  0  0  0  0  0  0  0
    1.0300    0.2820    1.8000 N   0  0  0  0  0  0  0  0  0  0  0  0
    2.3860    0.4590    2.3030 C   0  0  0  0  0  0  0  0  0  0  0  0
    0.0050    0.0040   -0.0120 H   0  0  0  0  0  0  0  0  0  0  0  0
    1.6190   -0.7370    0.0590 H   0  0  0  0  0  0  0  0  0  0  0  0
    1.4570    1.0230   -0.1200 H   0  0  0  0  0  0  0  0  0  0  0  0
    0.6210   -0.5500    2.2230 H   0  0  0  0  0  0  0  0  0  0  0  0
    2.3530    0.5660    3.3840 H   0  0  0  0  0  0  0  0  0  0  0  0
    2.8200    1.3500    1.8590 H   0  0  0  0  0  0  0  0  0  0  0  0
    2.9820   -0.4100    2.0380 H   0  0  0  0  0  0  0  0  0  0  0  0
  1  2  1  0  0  0  0
  1  4  1  0  0  0  0
  1  5  1  0  0  0  0
  1  6  1  0  0  0  0
  2  3  1  0  0  0  0
  2  7  1  0  0  0  0
  3  8  1  0  0  0  0
  3  9  1  0  0  0  0
  3 10  1  0  0  0  0
M  END
>  <COMPND>
    mobley_5692472 

>  <AUTHOR>
    GENERATED BY OPEN BABEL 2.3.2

>  <MASTER>
        0    0    0    0    0    0    0    0   10    0   10    0

$$$$
