mobley_1520842.pdb
 OpenBabel09222014463D

 14 14  0  0  0  0  0  0  0  0999 V2000
    2.3470    0.8980    1.0440 C   0  0  0  0  0  0  0  0  0  0  0  0
    1.3880   -0.0680    1.6520 C   0  0  0  0  0  0  0  0  0  0  0  0
    0.2270   -0.4200    0.9730 C   0  0  0  0  0  0  0  0  0  0  0  0
   -0.6320   -1.3220    1.5800 C   0  0  0  0  0  0  0  0  0  0  0  0
   -0.4090   -1.8820    2.7910 N   0  0  0  0  0  0  0  0  0  0  0  0
    0.7300   -1.5160    3.4210 C   0  0  0  0  0  0  0  0  0  0  0  0
    1.6520   -0.6230    2.9000 C   0  0  0  0  0  0  0  0  0  0  0  0
    3.0860    0.3630    0.4410 H   0  0  0  0  0  0  0  0  0  0  0  0
    1.8240    1.6190    0.4070 H   0  0  0  0  0  0  0  0  0  0  0  0
    2.8690    1.4700    1.8190 H   0  0  0  0  0  0  0  0  0  0  0  0
   -0.0080   -0.0060   -0.0020 H   0  0  0  0  0  0  0  0  0  0  0  0
   -1.5500   -1.6300    1.0920 H   0  0  0  0  0  0  0  0  0  0  0  0
    0.8890   -1.9760    4.3900 H   0  0  0  0  0  0  0  0  0  0  0  0
    2.5490   -0.3680    3.4540 H   0  0  0  0  0  0  0  0  0  0  0  0
  1  2  1  0  0  0  0
  1  8  1  0  0  0  0
  1  9  1  0  0  0  0
  1 10  1  0  0  0  0
  2  7  2  0  0  0  0
  2  3  1  0  0  0  0
  3  4  2  0  0  0  0
  3 11  1  0  0  0  0
  4  5  1  0  0  0  0
  4 12  1  0  0  0  0
  5  6  2  0  0  0  0
  6  7  1  0  0  0  0
  6 13  1  0  0  0  0
  7 14  1  0  0  0  0
M  END
>  <COMPND>
    mobley_1520842 

>  <AUTHOR>
    GENERATED BY OPEN BABEL 2.3.2

>  <MASTER>
        0    0    0    0    0    0    0    0   14    0   14    0

$$$$
