mobley_5157661.pdb
 OpenBabel09222014463D

 14 13  0  0  0  0  0  0  0  0999 V2000
    0.6620   -0.3790   -0.7850 C   0  0  0  0  0  0  0  0  0  0  0  0
    0.1010   -0.0600   -2.1690 C   0  0  0  0  0  0  0  0  0  0  0  0
   -0.0690    1.4480   -2.3440 C   0  0  0  0  0  0  0  0  0  0  0  0
    1.0050   -0.6290   -3.2600 C   0  0  0  0  0  0  0  0  0  0  0  0
    0.7890   -1.4580   -0.6460 H   0  0  0  0  0  0  0  0  0  0  0  0
    1.6380    0.0970   -0.6420 H   0  0  0  0  0  0  0  0  0  0  0  0
   -0.0070   -0.0130    0.0000 H   0  0  0  0  0  0  0  0  0  0  0  0
   -0.8860   -0.5310   -2.2580 H   0  0  0  0  0  0  0  0  0  0  0  0
   -0.4720    1.6910   -3.3340 H   0  0  0  0  0  0  0  0  0  0  0  0
    0.8910    1.9620   -2.2340 H   0  0  0  0  0  0  0  0  0  0  0  0
   -0.7540    1.8520   -1.5910 H   0  0  0  0  0  0  0  0  0  0  0  0
    0.6130   -0.4060   -4.2580 H   0  0  0  0  0  0  0  0  0  0  0  0
    1.0920   -1.7160   -3.1640 H   0  0  0  0  0  0  0  0  0  0  0  0
    2.0130   -0.2050   -3.1890 H   0  0  0  0  0  0  0  0  0  0  0  0
  1  2  1  0  0  0  0
  1  5  1  0  0  0  0
  1  6  1  0  0  0  0
  1  7  1  0  0  0  0
  2  3  1  0  0  0  0
  2  4  1  0  0  0  0
  2  8  1  0  0  0  0
  3  9  1  0  0  0  0
  3 10  1  0  0  0  0
  3 11  1  0  0  0  0
  4 12  1  0  0  0  0
  4 13  1  0  0  0  0
  4 14  1  0  0  0  0
M  END
>  <COMPND>
    mobley_5157661 

>  <AUTHOR>
    GENERATED BY OPEN BABEL 2.3.2

>  <MASTER>
        0    0    0    0    0    0    0    0   14    0   14    0

$$$$
