mobley_9653690.pdb
 OpenBabel09222014463D

 27 27  0  0  1  0  0  0  0  0999 V2000
   -3.7290   -4.7830    2.2230 C   0  0  0  0  0  0  0  0  0  0  0  0
   -2.7240   -3.8100    1.6750 C   0  0  0  0  0  0  0  0  0  0  0  0
   -2.8630   -2.4850    1.8510 C   0  0  0  0  0  0  0  0  0  0  0  0
   -1.9050   -1.4630    1.3100 C   0  0  0  0  0  0  0  0  0  0  0  0
   -0.9330   -2.0300    0.2630 C   0  0  2  0  0  0  0  0  0  0  0  0
   -1.4750   -2.1660   -0.6830 H   0  0  0  0  0  0  0  0  0  0  0  0
   -0.3990   -3.3940    0.7230 C   0  0  0  0  0  0  0  0  0  0  0  0
   -1.5410   -4.3970    0.9430 C   0  0  2  0  0  0  0  0  0  0  0  0
   -1.1370   -5.2510    1.4990 H   0  0  0  0  0  0  0  0  0  0  0  0
   -1.9670   -4.8760   -0.3330 O   0  0  0  0  0  0  0  0  0  0  0  0
    0.1870   -1.0690   -0.0010 C   0  0  0  0  0  0  0  0  0  0  0  0
    1.0230   -0.6700    0.9690 C   0  0  0  0  0  0  0  0  0  0  0  0
    0.3200   -0.5780   -1.4130 C   0  0  0  0  0  0  0  0  0  0  0  0
   -3.4600   -5.0730    3.2420 H   0  0  0  0  0  0  0  0  0  0  0  0
   -3.7670   -5.6810    1.6000 H   0  0  0  0  0  0  0  0  0  0  0  0
   -4.7250   -4.3320    2.2370 H   0  0  0  0  0  0  0  0  0  0  0  0
   -3.7130   -2.1000    2.4080 H   0  0  0  0  0  0  0  0  0  0  0  0
   -2.4810   -0.6450    0.8590 H   0  0  0  0  0  0  0  0  0  0  0  0
   -1.3560   -1.0320    2.1580 H   0  0  0  0  0  0  0  0  0  0  0  0
    0.3000   -3.7910   -0.0250 H   0  0  0  0  0  0  0  0  0  0  0  0
    0.1610   -3.2710    1.6600 H   0  0  0  0  0  0  0  0  0  0  0  0
   -1.1950   -5.2990   -0.7380 H   0  0  0  0  0  0  0  0  0  0  0  0
    1.8310    0.0260    0.7660 H   0  0  0  0  0  0  0  0  0  0  0  0
    0.9200   -1.0300    1.9870 H   0  0  0  0  0  0  0  0  0  0  0  0
   -0.2710    0.3330   -1.5560 H   0  0  0  0  0  0  0  0  0  0  0  0
    1.3670   -0.3520   -1.6390 H   0  0  0  0  0  0  0  0  0  0  0  0
   -0.0270   -1.3180   -2.1420 H   0  0  0  0  0  0  0  0  0  0  0  0
  1  2  1  0  0  0  0
  1 14  1  0  0  0  0
  1 15  1  0  0  0  0
  1 16  1  0  0  0  0
  2  8  1  0  0  0  0
  2  3  2  0  0  0  0
  3  4  1  0  0  0  0
  3 17  1  0  0  0  0
  4  5  1  0  0  0  0
  4 18  1  0  0  0  0
  4 19  1  0  0  0  0
  5  6  1  6  0  0  0
  5  7  1  0  0  0  0
  5 11  1  0  0  0  0
  7  8  1  0  0  0  0
  7 20  1  0  0  0  0
  7 21  1  0  0  0  0
  8  9  1  1  0  0  0
  8 10  1  0  0  0  0
 10 22  1  0  0  0  0
 11 12  2  0  0  0  0
 11 13  1  0  0  0  0
 12 23  1  0  0  0  0
 12 24  1  0  0  0  0
 13 25  1  0  0  0  0
 13 26  1  0  0  0  0
 13 27  1  0  0  0  0
M  END
>  <COMPND>
    mobley_9653690 

>  <AUTHOR>
    GENERATED BY OPEN BABEL 2.3.2

>  <MASTER>
        0    0    0    0    0    0    0    0   27    0   27    0

$$$$
