mobley_3968043.pdb
 OpenBabel09222014463D

 14 14  0  0  0  0  0  0  0  0999 V2000
    0.6830    1.4450    0.0710 C   0  0  0  0  0  0  0  0  0  0  0  0
   -0.1590    1.1000   -1.1500 C   0  0  0  0  0  0  0  0  0  0  0  0
   -0.2120   -0.4220   -1.1580 C   0  0  0  0  0  0  0  0  0  0  0  0
   -0.1520   -0.7390    0.3130 C   0  0  0  0  0  0  0  0  0  0  0  0
   -0.3800   -1.8470    0.7830 O   0  0  0  0  0  0  0  0  0  0  0  0
    0.2210    0.4630    1.1410 C   0  0  0  0  0  0  0  0  0  0  0  0
    0.5560    2.4850    0.3850 H   0  0  0  0  0  0  0  0  0  0  0  0
    1.7450    1.2860   -0.1520 H   0  0  0  0  0  0  0  0  0  0  0  0
   -1.1690    1.5120   -1.0340 H   0  0  0  0  0  0  0  0  0  0  0  0
    0.2650    1.5020   -2.0750 H   0  0  0  0  0  0  0  0  0  0  0  0
   -1.1330   -0.7950   -1.6100 H   0  0  0  0  0  0  0  0  0  0  0  0
    0.6660   -0.8510   -1.6510 H   0  0  0  0  0  0  0  0  0  0  0  0
   -0.6700    0.8280    1.6600 H   0  0  0  0  0  0  0  0  0  0  0  0
    1.0170    0.2280    1.8490 H   0  0  0  0  0  0  0  0  0  0  0  0
  1  6  1  0  0  0  0
  1  2  1  0  0  0  0
  1  7  1  0  0  0  0
  1  8  1  0  0  0  0
  2  3  1  0  0  0  0
  2  9  1  0  0  0  0
  2 10  1  0  0  0  0
  3  4  1  0  0  0  0
  3 11  1  0  0  0  0
  3 12  1  0  0  0  0
  4  5  2  0  0  0  0
  4  6  1  0  0  0  0
  6 13  1  0  0  0  0
  6 14  1  0  0  0  0
M  END
>  <COMPND>
    mobley_3968043 

>  <AUTHOR>
    GENERATED BY OPEN BABEL 2.3.2

>  <MASTER>
        0    0    0    0    0    0    0    0   14    0   14    0

$$$$
