mobley_1278715.pdb
 OpenBabel09222014463D

  8  7  0  0  0  0  0  0  0  0999 V2000
   -0.2320   -0.3810   -0.6370 C   0  0  0  0  0  0  0  0  0  0  0  0
    0.2320    0.3810    0.6370 C   0  0  0  0  0  0  0  0  0  0  0  0
    2.0320    0.4310    0.7700 Cl  0  0  0  0  0  0  0  0  0  0  0  0
   -0.3880   -0.3940    2.1450 Cl  0  0  0  0  0  0  0  0  0  0  0  0
   -0.3460    2.0910    0.6450 Cl  0  0  0  0  0  0  0  0  0  0  0  0
   -2.0320   -0.4310   -0.7700 Cl  0  0  0  0  0  0  0  0  0  0  0  0
    0.3880    0.3940   -2.1450 Cl  0  0  0  0  0  0  0  0  0  0  0  0
    0.3460   -2.0910   -0.6450 Cl  0  0  0  0  0  0  0  0  0  0  0  0
  1  2  1  0  0  0  0
  1  6  1  0  0  0  0
  1  7  1  0  0  0  0
  1  8  1  0  0  0  0
  2  3  1  0  0  0  0
  2  4  1  0  0  0  0
  2  5  1  0  0  0  0
M  END
>  <COMPND>
    mobley_1278715 

>  <AUTHOR>
    GENERATED BY OPEN BABEL 2.3.2

>  <MASTER>
        0    0    0    0    0    0    0    0    8    0    8    0

$$$$
