mobley_5094777.pdb
 OpenBabel09222014463D

 19 20  0  0  0  0  0  0  0  0999 V2000
   -0.9110   -1.1190    1.6050 C   0  0  0  0  0  0  0  0  0  0  0  0
   -0.1940   -0.9900    0.4050 C   0  0  0  0  0  0  0  0  0  0  0  0
    0.2780   -2.1190   -0.2680 C   0  0  0  0  0  0  0  0  0  0  0  0
    0.0090   -3.3650    0.2730 C   0  0  0  0  0  0  0  0  0  0  0  0
   -0.7060   -3.4940    1.4690 C   0  0  0  0  0  0  0  0  0  0  0  0
   -1.1670   -2.3790    2.1500 C   0  0  0  0  0  0  0  0  0  0  0  0
   -0.8220   -4.9310    1.8680 C   0  0  0  0  0  0  0  0  0  0  0  0
   -0.5010   -5.6350    0.5410 C   0  0  0  0  0  0  0  0  0  0  0  0
    0.4390   -4.7030   -0.2380 C   0  0  0  0  0  0  0  0  0  0  0  0
   -1.2650   -0.2280    2.1180 H   0  0  0  0  0  0  0  0  0  0  0  0
   -0.0010    0.0000   -0.0010 H   0  0  0  0  0  0  0  0  0  0  0  0
    0.8410   -2.0150   -1.1900 H   0  0  0  0  0  0  0  0  0  0  0  0
   -1.7100   -2.4760    3.0830 H   0  0  0  0  0  0  0  0  0  0  0  0
   -0.0760   -5.1710    2.6330 H   0  0  0  0  0  0  0  0  0  0  0  0
   -1.8230   -5.1880    2.2250 H   0  0  0  0  0  0  0  0  0  0  0  0
   -0.0740   -6.6310    0.6890 H   0  0  0  0  0  0  0  0  0  0  0  0
   -1.4310   -5.7640   -0.0300 H   0  0  0  0  0  0  0  0  0  0  0  0
    1.4860   -4.8880    0.0250 H   0  0  0  0  0  0  0  0  0  0  0  0
    0.2980   -4.8060   -1.3180 H   0  0  0  0  0  0  0  0  0  0  0  0
  1  6  2  0  0  0  0
  1  2  1  0  0  0  0
  1 10  1  0  0  0  0
  2  3  2  0  0  0  0
  2 11  1  0  0  0  0
  3  4  1  0  0  0  0
  3 12  1  0  0  0  0
  4  9  1  0  0  0  0
  4  5  2  0  0  0  0
  5  6  1  0  0  0  0
  5  7  1  0  0  0  0
  6 13  1  0  0  0  0
  7  8  1  0  0  0  0
  7 14  1  0  0  0  0
  7 15  1  0  0  0  0
  8  9  1  0  0  0  0
  8 16  1  0  0  0  0
  8 17  1  0  0  0  0
  9 18  1  0  0  0  0
  9 19  1  0  0  0  0
M  END
>  <COMPND>
    mobley_5094777 

>  <AUTHOR>
    GENERATED BY OPEN BABEL 2.3.2

>  <MASTER>
        0    0    0    0    0    0    0    0   19    0   19    0

$$$$
