mobley_2146331.pdb
 OpenBabel09222014463D

  4  3  0  0  0  0  0  0  0  0999 V2000
   -0.0050    0.0110    0.0000 C   0  0  0  0  0  0  0  0  0  0  0  0
    0.5130   -1.0980   -0.0040 O   0  0  0  0  0  0  0  0  0  0  0  0
   -1.0980    0.1490    0.0150 H   0  0  0  0  0  0  0  0  0  0  0  0
    0.5900    0.9380   -0.0110 H   0  0  0  0  0  0  0  0  0  0  0  0
  1  2  2  0  0  0  0
  1  3  1  0  0  0  0
  1  4  1  0  0  0  0
M  END
>  <COMPND>
    mobley_2146331 

>  <AUTHOR>
    GENERATED BY OPEN BABEL 2.3.2

>  <MASTER>
        0    0    0    0    0    0    0    0    4    0    4    0

$$$$
