mobley_6201330.pdb
 OpenBabel09222014463D

 25 25  0  0  0  0  0  0  0  0999 V2000
    0.1270   -0.8830    0.7360 C   0  0  0  0  0  0  0  0  0  0  0  0
    1.3670   -0.6500    1.5800 C   0  0  0  0  0  0  0  0  0  0  0  0
    1.2750   -1.3490    2.9280 C   0  0  0  0  0  0  0  0  0  0  0  0
    2.4630   -1.0900    3.6620 O   0  0  0  0  0  0  0  0  0  0  0  0
    2.5350   -1.6510    4.9010 C   0  0  0  0  0  0  0  0  0  0  0  0
    1.6790   -2.3470    5.4240 O   0  0  0  0  0  0  0  0  0  0  0  0
    3.8190   -1.3050    5.5620 C   0  0  0  0  0  0  0  0  0  0  0  0
    4.0950   -1.7820    6.8440 C   0  0  0  0  0  0  0  0  0  0  0  0
    5.3010   -1.4570    7.4650 C   0  0  0  0  0  0  0  0  0  0  0  0
    6.2310   -0.6550    6.8040 C   0  0  0  0  0  0  0  0  0  0  0  0
    5.9560   -0.1790    5.5220 C   0  0  0  0  0  0  0  0  0  0  0  0
    4.7500   -0.5040    4.9010 C   0  0  0  0  0  0  0  0  0  0  0  0
    7.4090   -0.3380    7.4090 O   0  0  0  0  0  0  0  0  0  0  0  0
    0.2090   -0.3740   -0.2300 H   0  0  0  0  0  0  0  0  0  0  0  0
   -0.0070   -1.9530    0.5460 H   0  0  0  0  0  0  0  0  0  0  0  0
   -0.7690   -0.5130    1.2450 H   0  0  0  0  0  0  0  0  0  0  0  0
    1.5170    0.4260    1.7330 H   0  0  0  0  0  0  0  0  0  0  0  0
    2.2560   -1.0030    1.0420 H   0  0  0  0  0  0  0  0  0  0  0  0
    0.4210   -0.9770    3.5030 H   0  0  0  0  0  0  0  0  0  0  0  0
    1.1730   -2.4320    2.8000 H   0  0  0  0  0  0  0  0  0  0  0  0
    3.3770   -2.4070    7.3690 H   0  0  0  0  0  0  0  0  0  0  0  0
    5.5100   -1.8320    8.4620 H   0  0  0  0  0  0  0  0  0  0  0  0
    6.6770    0.4470    5.0020 H   0  0  0  0  0  0  0  0  0  0  0  0
    4.5450   -0.1270    3.9020 H   0  0  0  0  0  0  0  0  0  0  0  0
    7.4530   -0.7410    8.2900 H   0  0  0  0  0  0  0  0  0  0  0  0
  1  2  1  0  0  0  0
  1 14  1  0  0  0  0
  1 15  1  0  0  0  0
  1 16  1  0  0  0  0
  2  3  1  0  0  0  0
  2 17  1  0  0  0  0
  2 18  1  0  0  0  0
  3  4  1  0  0  0  0
  3 19  1  0  0  0  0
  3 20  1  0  0  0  0
  4  5  1  0  0  0  0
  5  6  2  0  0  0  0
  5  7  1  0  0  0  0
  7 12  2  0  0  0  0
  7  8  1  0  0  0  0
  8  9  2  0  0  0  0
  8 21  1  0  0  0  0
  9 10  1  0  0  0  0
  9 22  1  0  0  0  0
 10 11  2  0  0  0  0
 10 13  1  0  0  0  0
 11 12  1  0  0  0  0
 11 23  1  0  0  0  0
 12 24  1  0  0  0  0
 13 25  1  0  0  0  0
M  END
>  <COMPND>
    mobley_6201330 

>  <AUTHOR>
    GENERATED BY OPEN BABEL 2.3.2

>  <MASTER>
        0    0    0    0    0    0    0    0   25    0   25    0

$$$$
