mobley_7015518.pdb
 OpenBabel09222014463D

  9  8  0  0  0  0  0  0  0  0999 V2000
   -0.6100   -0.5150    0.7480 C   0  0  0  0  0  0  0  0  0  0  0  0
    0.0350   -0.4990    2.0140 O   0  0  0  0  0  0  0  0  0  0  0  0
    1.2890   -1.1660    1.9690 C   0  0  0  0  0  0  0  0  0  0  0  0
   -1.5690    0.0050    0.8200 H   0  0  0  0  0  0  0  0  0  0  0  0
   -0.7680   -1.5490    0.4320 H   0  0  0  0  0  0  0  0  0  0  0  0
    0.0240   -0.0060    0.0190 H   0  0  0  0  0  0  0  0  0  0  0  0
    1.7510   -1.1310    2.9570 H   0  0  0  0  0  0  0  0  0  0  0  0
    1.9300   -0.6780    1.2330 H   0  0  0  0  0  0  0  0  0  0  0  0
    1.1230   -2.2040    1.6790 H   0  0  0  0  0  0  0  0  0  0  0  0
  1  2  1  0  0  0  0
  1  4  1  0  0  0  0
  1  5  1  0  0  0  0
  1  6  1  0  0  0  0
  2  3  1  0  0  0  0
  3  7  1  0  0  0  0
  3  8  1  0  0  0  0
  3  9  1  0  0  0  0
M  END
>  <COMPND>
    mobley_7015518 

>  <AUTHOR>
    GENERATED BY OPEN BABEL 2.3.2

>  <MASTER>
        0    0    0    0    0    0    0    0    9    0    9    0

$$$$
