mobley_852937.pdb
 OpenBabel09222014463D

 13 13  0  0  0  0  0  0  0  0999 V2000
    1.8850   -1.0360   -0.1120 C   0  0  0  0  0  0  0  0  0  0  0  0
    2.9210   -1.6310    0.6080 C   0  0  0  0  0  0  0  0  0  0  0  0
    2.8780   -1.6520    2.0020 C   0  0  0  0  0  0  0  0  0  0  0  0
    1.8000   -1.0790    2.6760 C   0  0  0  0  0  0  0  0  0  0  0  0
    0.7640   -0.4840    1.9550 C   0  0  0  0  0  0  0  0  0  0  0  0
    0.8070   -0.4630    0.5610 C   0  0  0  0  0  0  0  0  0  0  0  0
   -0.2050    0.1170   -0.1410 O   0  0  0  0  0  0  0  0  0  0  0  0
    3.8730   -2.2230    2.6940 F   0  0  0  0  0  0  0  0  0  0  0  0
    1.9240   -1.0240   -1.1980 H   0  0  0  0  0  0  0  0  0  0  0  0
    3.7600   -2.0780    0.0840 H   0  0  0  0  0  0  0  0  0  0  0  0
    1.7670   -1.0960    3.7610 H   0  0  0  0  0  0  0  0  0  0  0  0
   -0.0740   -0.0400    2.4850 H   0  0  0  0  0  0  0  0  0  0  0  0
   -0.0330    0.0520   -1.0940 H   0  0  0  0  0  0  0  0  0  0  0  0
  1  6  2  0  0  0  0
  1  2  1  0  0  0  0
  1  9  1  0  0  0  0
  2  3  2  0  0  0  0
  2 10  1  0  0  0  0
  3  4  1  0  0  0  0
  3  8  1  0  0  0  0
  4  5  2  0  0  0  0
  4 11  1  0  0  0  0
  5  6  1  0  0  0  0
  5 12  1  0  0  0  0
  6  7  1  0  0  0  0
  7 13  1  0  0  0  0
M  END
>  <COMPND>
    mobley_852937 

>  <AUTHOR>
    GENERATED BY OPEN BABEL 2.3.2

>  <MASTER>
        0    0    0    0    0    0    0    0   13    0   13    0

$$$$
