mobley_1963873.pdb
 OpenBabel09222014463D

 12 11  0  0  0  0  0  0  0  0999 V2000
    0.9500   -0.2290    0.5090 C   0  0  0  0  0  0  0  0  0  0  0  0
    0.7450   -0.9430    1.8040 C   0  0  0  0  0  0  0  0  0  0  0  0
    0.1660   -2.0220    1.8130 O   0  0  0  0  0  0  0  0  0  0  0  0
    1.2540   -0.2750    2.9010 N   0  0  0  0  0  0  0  0  0  0  0  0
    1.1630   -0.7870    4.2500 C   0  0  0  0  0  0  0  0  0  0  0  0
    0.1170    0.4520    0.2680 H   0  0  0  0  0  0  0  0  0  0  0  0
    1.8510    0.4060    0.5170 H   0  0  0  0  0  0  0  0  0  0  0  0
    1.0600   -0.8770   -0.3750 H   0  0  0  0  0  0  0  0  0  0  0  0
    1.7140    0.6180    2.7530 H   0  0  0  0  0  0  0  0  0  0  0  0
    2.0380   -1.4000    4.4700 H   0  0  0  0  0  0  0  0  0  0  0  0
    0.2640   -1.3950    4.3550 H   0  0  0  0  0  0  0  0  0  0  0  0
    1.1190    0.0420    4.9580 H   0  0  0  0  0  0  0  0  0  0  0  0
  1  2  1  0  0  0  0
  1  6  1  0  0  0  0
  1  7  1  0  0  0  0
  1  8  1  0  0  0  0
  2  3  2  0  0  0  0
  2  4  1  0  0  0  0
  4  5  1  0  0  0  0
  4  9  1  0  0  0  0
  5 10  1  0  0  0  0
  5 11  1  0  0  0  0
  5 12  1  0  0  0  0
M  END
>  <COMPND>
    mobley_1963873 

>  <AUTHOR>
    GENERATED BY OPEN BABEL 2.3.2

>  <MASTER>
        0    0    0    0    0    0    0    0   12    0   12    0

$$$$
