mobley_36119.pdb
 OpenBabel09222014463D

 27 26  0  0  0  0  0  0  0  0999 V2000
    2.5800    3.1400   -2.3930 C   0  0  0  0  0  0  0  0  0  0  0  0
    2.1180    1.7400   -2.7630 C   0  0  0  0  0  0  0  0  0  0  0  0
    0.9800    1.7770   -3.7840 C   0  0  0  0  0  0  0  0  0  0  0  0
    0.5210    0.3650   -4.1520 C   0  0  0  0  0  0  0  0  0  0  0  0
   -0.6200    0.3420   -5.1750 C   0  0  0  0  0  0  0  0  0  0  0  0
   -1.0790   -1.0710   -5.5420 C   0  0  0  0  0  0  0  0  0  0  0  0
   -2.2160   -1.0340   -6.5630 C   0  0  0  0  0  0  0  0  0  0  0  0
   -2.6810   -2.4350   -6.9360 C   0  0  0  0  0  0  0  0  0  0  0  0
   -3.7340   -2.3320   -7.8840 O   0  0  0  0  0  0  0  0  0  0  0  0
    3.3940    3.1040   -1.6610 H   0  0  0  0  0  0  0  0  0  0  0  0
    1.7580    3.7240   -1.9640 H   0  0  0  0  0  0  0  0  0  0  0  0
    2.9440    3.6670   -3.2800 H   0  0  0  0  0  0  0  0  0  0  0  0
    1.7880    1.2190   -1.8570 H   0  0  0  0  0  0  0  0  0  0  0  0
    2.9670    1.1780   -3.1700 H   0  0  0  0  0  0  0  0  0  0  0  0
    0.1440    2.3480   -3.3670 H   0  0  0  0  0  0  0  0  0  0  0  0
    1.3150    2.3020   -4.6870 H   0  0  0  0  0  0  0  0  0  0  0  0
    0.2130   -0.1730   -3.2470 H   0  0  0  0  0  0  0  0  0  0  0  0
    1.3690   -0.1890   -4.5750 H   0  0  0  0  0  0  0  0  0  0  0  0
   -1.4690    0.9200   -4.7910 H   0  0  0  0  0  0  0  0  0  0  0  0
   -0.2740    0.8530   -6.0820 H   0  0  0  0  0  0  0  0  0  0  0  0
   -1.4210   -1.6000   -4.6460 H   0  0  0  0  0  0  0  0  0  0  0  0
   -0.2350   -1.6370   -5.9540 H   0  0  0  0  0  0  0  0  0  0  0  0
   -1.8950   -0.5060   -7.4690 H   0  0  0  0  0  0  0  0  0  0  0  0
   -3.0640   -0.4630   -6.1660 H   0  0  0  0  0  0  0  0  0  0  0  0
   -1.8640   -3.0110   -7.3840 H   0  0  0  0  0  0  0  0  0  0  0  0
   -3.0540   -2.9700   -6.0570 H   0  0  0  0  0  0  0  0  0  0  0  0
   -4.0060   -3.2390   -8.1000 H   0  0  0  0  0  0  0  0  0  0  0  0
  1  2  1  0  0  0  0
  1 10  1  0  0  0  0
  1 11  1  0  0  0  0
  1 12  1  0  0  0  0
  2  3  1  0  0  0  0
  2 13  1  0  0  0  0
  2 14  1  0  0  0  0
  3  4  1  0  0  0  0
  3 15  1  0  0  0  0
  3 16  1  0  0  0  0
  4  5  1  0  0  0  0
  4 17  1  0  0  0  0
  4 18  1  0  0  0  0
  5  6  1  0  0  0  0
  5 19  1  0  0  0  0
  5 20  1  0  0  0  0
  6  7  1  0  0  0  0
  6 21  1  0  0  0  0
  6 22  1  0  0  0  0
  7  8  1  0  0  0  0
  7 23  1  0  0  0  0
  7 24  1  0  0  0  0
  8  9  1  0  0  0  0
  8 25  1  0  0  0  0
  8 26  1  0  0  0  0
  9 27  1  0  0  0  0
M  END
>  <COMPND>
    mobley_36119 

>  <AUTHOR>
    GENERATED BY OPEN BABEL 2.3.2

>  <MASTER>
        0    0    0    0    0    0    0    0   27    0   27    0

$$$$
