mobley_5263791.pdb
 OpenBabel09222014463D

 24 25  0  0  0  0  0  0  0  0999 V2000
   -0.9110   -4.5700    2.5510 C   0  0  0  0  0  0  0  0  0  0  0  0
   -1.0090   -4.3870    1.0440 C   0  0  0  0  0  0  0  0  0  0  0  0
   -0.0480   -3.3540    0.5450 C   0  0  0  0  0  0  0  0  0  0  0  0
   -0.4970   -2.0340    0.4940 C   0  0  0  0  0  0  0  0  0  0  0  0
    0.3500   -1.0280    0.0390 C   0  0  0  0  0  0  0  0  0  0  0  0
    1.6480   -1.3370   -0.3660 C   0  0  0  0  0  0  0  0  0  0  0  0
    2.1170   -2.6600   -0.3220 C   0  0  0  0  0  0  0  0  0  0  0  0
    1.2560   -3.6840    0.1400 C   0  0  0  0  0  0  0  0  0  0  0  0
    1.7240   -5.0070    0.1850 C   0  0  0  0  0  0  0  0  0  0  0  0
    3.0230   -5.3170   -0.2210 C   0  0  0  0  0  0  0  0  0  0  0  0
    3.8690   -4.3100   -0.6760 C   0  0  0  0  0  0  0  0  0  0  0  0
    3.4210   -2.9900   -0.7270 C   0  0  0  0  0  0  0  0  0  0  0  0
   -1.6180   -5.3270    2.9070 H   0  0  0  0  0  0  0  0  0  0  0  0
   -1.1380   -3.6280    3.0620 H   0  0  0  0  0  0  0  0  0  0  0  0
    0.0950   -4.8830    2.8490 H   0  0  0  0  0  0  0  0  0  0  0  0
   -2.0330   -4.1020    0.7720 H   0  0  0  0  0  0  0  0  0  0  0  0
   -0.8180   -5.3430    0.5420 H   0  0  0  0  0  0  0  0  0  0  0  0
   -1.5060   -1.7800    0.8070 H   0  0  0  0  0  0  0  0  0  0  0  0
    0.0010    0.0000   -0.0020 H   0  0  0  0  0  0  0  0  0  0  0  0
    2.2930   -0.5340   -0.7190 H   0  0  0  0  0  0  0  0  0  0  0  0
    1.0940   -5.8210    0.5340 H   0  0  0  0  0  0  0  0  0  0  0  0
    3.3730   -6.3440   -0.1820 H   0  0  0  0  0  0  0  0  0  0  0  0
    4.8800   -4.5520   -0.9920 H   0  0  0  0  0  0  0  0  0  0  0  0
    4.1000   -2.2200   -1.0860 H   0  0  0  0  0  0  0  0  0  0  0  0
  1  2  1  0  0  0  0
  1 13  1  0  0  0  0
  1 14  1  0  0  0  0
  1 15  1  0  0  0  0
  2  3  1  0  0  0  0
  2 16  1  0  0  0  0
  2 17  1  0  0  0  0
  3  8  2  0  0  0  0
  3  4  1  0  0  0  0
  4  5  2  0  0  0  0
  4 18  1  0  0  0  0
  5  6  1  0  0  0  0
  5 19  1  0  0  0  0
  6  7  2  0  0  0  0
  6 20  1  0  0  0  0
  7 12  1  0  0  0  0
  7  8  1  0  0  0  0
  8  9  1  0  0  0  0
  9 10  2  0  0  0  0
  9 21  1  0  0  0  0
 10 11  1  0  0  0  0
 10 22  1  0  0  0  0
 11 12  2  0  0  0  0
 11 23  1  0  0  0  0
 12 24  1  0  0  0  0
M  END
>  <COMPND>
    mobley_5263791 

>  <AUTHOR>
    GENERATED BY OPEN BABEL 2.3.2

>  <MASTER>
        0    0    0    0    0    0    0    0   24    0   24    0

$$$$
