mobley_1571523.pdb
 OpenBabel09222014463D

 19 19  0  0  0  0  0  0  0  0999 V2000
    1.9550   -1.0270   -1.6040 C   0  0  0  0  0  0  0  0  0  0  0  0
    1.8850   -1.0360   -0.1120 C   0  0  0  0  0  0  0  0  0  0  0  0
    2.9210   -1.6310    0.6080 C   0  0  0  0  0  0  0  0  0  0  0  0
    2.8780   -1.6520    2.0020 C   0  0  0  0  0  0  0  0  0  0  0  0
    1.8000   -1.0790    2.6760 C   0  0  0  0  0  0  0  0  0  0  0  0
    0.7640   -0.4840    1.9550 C   0  0  0  0  0  0  0  0  0  0  0  0
    0.8070   -0.4630    0.5610 C   0  0  0  0  0  0  0  0  0  0  0  0
   -0.3070    0.1740   -0.2070 C   0  0  0  0  0  0  0  0  0  0  0  0
   -0.2820    0.0700    2.6310 O   0  0  0  0  0  0  0  0  0  0  0  0
    2.4690   -0.1250   -1.9500 H   0  0  0  0  0  0  0  0  0  0  0  0
    2.4930   -1.9050   -1.9760 H   0  0  0  0  0  0  0  0  0  0  0  0
    0.9520   -1.0530   -2.0430 H   0  0  0  0  0  0  0  0  0  0  0  0
    3.7660   -2.0800    0.0930 H   0  0  0  0  0  0  0  0  0  0  0  0
    3.6860   -2.1130    2.5630 H   0  0  0  0  0  0  0  0  0  0  0  0
    1.7720   -1.0990    3.7620 H   0  0  0  0  0  0  0  0  0  0  0  0
   -0.0940    1.2360   -0.3720 H   0  0  0  0  0  0  0  0  0  0  0  0
   -0.4450   -0.3120   -1.1800 H   0  0  0  0  0  0  0  0  0  0  0  0
   -1.2580    0.0870    0.3320 H   0  0  0  0  0  0  0  0  0  0  0  0
   -0.1540   -0.0320    3.5870 H   0  0  0  0  0  0  0  0  0  0  0  0
  1  2  1  0  0  0  0
  1 10  1  0  0  0  0
  1 11  1  0  0  0  0
  1 12  1  0  0  0  0
  2  7  2  0  0  0  0
  2  3  1  0  0  0  0
  3  4  2  0  0  0  0
  3 13  1  0  0  0  0
  4  5  1  0  0  0  0
  4 14  1  0  0  0  0
  5  6  2  0  0  0  0
  5 15  1  0  0  0  0
  6  7  1  0  0  0  0
  6  9  1  0  0  0  0
  7  8  1  0  0  0  0
  8 16  1  0  0  0  0
  8 17  1  0  0  0  0
  8 18  1  0  0  0  0
  9 19  1  0  0  0  0
M  END
>  <COMPND>
    mobley_1571523 

>  <AUTHOR>
    GENERATED BY OPEN BABEL 2.3.2

>  <MASTER>
        0    0    0    0    0    0    0    0   19    0   19    0

$$$$
