mobley_646007.pdb
 OpenBabel09222014463D

 14 14  0  0  0  0  0  0  0  0999 V2000
    0.3610   -0.3440   -1.1720 C   0  0  0  0  0  0  0  0  0  0  0  0
   -1.0610   -0.0530   -0.7050 C   0  0  0  0  0  0  0  0  0  0  0  0
   -0.9140    0.4540    0.7200 C   0  0  0  0  0  0  0  0  0  0  0  0
    0.3660   -0.0940    1.1570 N   0  0  0  0  0  0  0  0  0  0  0  0
    1.2480    0.0360    0.0000 C   0  0  0  0  0  0  0  0  0  0  0  0
    0.6170    0.2250   -2.0720 H   0  0  0  0  0  0  0  0  0  0  0  0
    0.4630   -1.4100   -1.4080 H   0  0  0  0  0  0  0  0  0  0  0  0
   -1.5560    0.6830   -1.3450 H   0  0  0  0  0  0  0  0  0  0  0  0
   -1.6540   -0.9750   -0.7310 H   0  0  0  0  0  0  0  0  0  0  0  0
   -0.8850    1.5500    0.7350 H   0  0  0  0  0  0  0  0  0  0  0  0
   -1.7360    0.1230    1.3600 H   0  0  0  0  0  0  0  0  0  0  0  0
    0.7320    0.4270    1.9520 H   0  0  0  0  0  0  0  0  0  0  0  0
    1.5960    1.0710   -0.1000 H   0  0  0  0  0  0  0  0  0  0  0  0
    2.1220   -0.6160    0.0820 H   0  0  0  0  0  0  0  0  0  0  0  0
  1  5  1  0  0  0  0
  1  2  1  0  0  0  0
  1  6  1  0  0  0  0
  1  7  1  0  0  0  0
  2  3  1  0  0  0  0
  2  8  1  0  0  0  0
  2  9  1  0  0  0  0
  3  4  1  0  0  0  0
  3 10  1  0  0  0  0
  3 11  1  0  0  0  0
  4  5  1  0  0  0  0
  4 12  1  0  0  0  0
  5 13  1  0  0  0  0
  5 14  1  0  0  0  0
M  END
>  <COMPND>
    mobley_646007 

>  <AUTHOR>
    GENERATED BY OPEN BABEL 2.3.2

>  <MASTER>
        0    0    0    0    0    0    0    0   14    0   14    0

$$$$
