mobley_3761215.pdb
 OpenBabel09222014463D

  8  7  0  0  0  0  0  0  0  0999 V2000
    1.0240    0.2810   -0.2700 C   0  0  0  0  0  0  0  0  0  0  0  0
    1.2870    1.7560    0.0010 C   0  0  0  0  0  0  0  0  0  0  0  0
    0.1600    2.7550   -0.9570 Cl  0  0  0  0  0  0  0  0  0  0  0  0
    1.0480    2.1020    1.7370 Cl  0  0  0  0  0  0  0  0  0  0  0  0
    2.9650    2.1640   -0.4530 Cl  0  0  0  0  0  0  0  0  0  0  0  0
    1.7030   -0.3600    0.3050 H   0  0  0  0  0  0  0  0  0  0  0  0
    0.0000    0.0000    0.0000 H   0  0  0  0  0  0  0  0  0  0  0  0
    1.1630    0.0370   -1.3310 H   0  0  0  0  0  0  0  0  0  0  0  0
  1  2  1  0  0  0  0
  1  6  1  0  0  0  0
  1  7  1  0  0  0  0
  1  8  1  0  0  0  0
  2  3  1  0  0  0  0
  2  4  1  0  0  0  0
  2  5  1  0  0  0  0
M  END
>  <COMPND>
    mobley_3761215 

>  <AUTHOR>
    GENERATED BY OPEN BABEL 2.3.2

>  <MASTER>
        0    0    0    0    0    0    0    0    8    0    8    0

$$$$
