mobley_9201263.pdb
 OpenBabel09222014463D

 12 11  0  0  0  0  0  0  0  0999 V2000
    0.9320   -0.5580    0.2000 C   0  0  0  0  0  0  0  0  0  0  0  0
    1.9820    0.3850    0.3490 O   0  0  0  0  0  0  0  0  0  0  0  0
    3.4450   -0.1410    0.8490 S   0  0  0  0  0  0  0  0  0  0  0  0
    3.9560   -1.1140   -0.0960 O   0  0  0  0  0  0  0  0  0  0  0  0
    3.4010   -0.4040    2.2730 O   0  0  0  0  0  0  0  0  0  0  0  0
    4.3140    1.3850    0.5950 C   0  0  0  0  0  0  0  0  0  0  0  0
    0.0270   -0.0470   -0.1390 H   0  0  0  0  0  0  0  0  0  0  0  0
    0.7470   -1.0530    1.1570 H   0  0  0  0  0  0  0  0  0  0  0  0
    1.2260   -1.3040   -0.5430 H   0  0  0  0  0  0  0  0  0  0  0  0
    5.3490    1.2260    0.8850 H   0  0  0  0  0  0  0  0  0  0  0  0
    4.2340    1.6370   -0.4590 H   0  0  0  0  0  0  0  0  0  0  0  0
    3.8410    2.1390    1.2180 H   0  0  0  0  0  0  0  0  0  0  0  0
  1  2  1  0  0  0  0
  1  7  1  0  0  0  0
  1  8  1  0  0  0  0
  1  9  1  0  0  0  0
  2  3  1  0  0  0  0
  3  4  2  0  0  0  0
  3  5  2  0  0  0  0
  3  6  1  0  0  0  0
  6 10  1  0  0  0  0
  6 11  1  0  0  0  0
  6 12  1  0  0  0  0
M  END
>  <COMPND>
    mobley_9201263 

>  <AUTHOR>
    GENERATED BY OPEN BABEL 2.3.2

>  <MASTER>
        0    0    0    0    0    0    0    0   12    0   12    0

$$$$
