mobley_7261305.pdb
 OpenBabel09222014463D

  6  5  0  0  0  0  0  0  0  0999 V2000
   -0.8080    0.5700   -0.2480 N   0  0  0  0  0  0  0  0  0  0  0  0
   -1.9600   -0.2580   -0.3170 N   0  0  0  0  0  0  0  0  0  0  0  0
   -0.9050    1.2120    0.5370 H   0  0  0  0  0  0  0  0  0  0  0  0
    0.0080   -0.0070   -0.0440 H   0  0  0  0  0  0  0  0  0  0  0  0
   -2.7890    0.3280   -0.4090 H   0  0  0  0  0  0  0  0  0  0  0  0
   -2.0640   -0.7570    0.5650 H   0  0  0  0  0  0  0  0  0  0  0  0
  1  2  1  0  0  0  0
  1  3  1  0  0  0  0
  1  4  1  0  0  0  0
  2  5  1  0  0  0  0
  2  6  1  0  0  0  0
M  END
>  <COMPND>
    mobley_7261305 

>  <AUTHOR>
    GENERATED BY OPEN BABEL 2.3.2

>  <MASTER>
        0    0    0    0    0    0    0    0    6    0    6    0

$$$$
