mobley_7378987.pdb
 OpenBabel09222014463D

 24 25  0  0  0  0  0  0  0  0999 V2000
    6.0480    2.9530   -1.7310 C   0  0  0  0  0  0  0  0  0  0  0  0
    4.9730    2.0840   -1.3170 N   0  0  0  0  0  0  0  0  0  0  0  0
    5.1110    0.7770   -0.9260 C   0  0  0  0  0  0  0  0  0  0  0  0
    3.9560    0.2330   -0.6040 N   0  0  0  0  0  0  0  0  0  0  0  0
    3.0450    1.2360   -0.7980 C   0  0  0  0  0  0  0  0  0  0  0  0
    3.6440    2.3850   -1.2370 C   0  0  0  0  0  0  0  0  0  0  0  0
    2.9520    3.5990   -1.5260 C   0  0  0  0  0  0  0  0  0  0  0  0
    3.5080    4.6220   -1.9180 O   0  0  0  0  0  0  0  0  0  0  0  0
    1.5560    3.4680   -1.3040 N   0  0  0  0  0  0  0  0  0  0  0  0
    0.8630    2.2900   -0.8430 C   0  0  0  0  0  0  0  0  0  0  0  0
   -0.3620    2.2780   -0.6780 O   0  0  0  0  0  0  0  0  0  0  0  0
    1.6740    1.1550   -0.5930 N   0  0  0  0  0  0  0  0  0  0  0  0
    1.0740   -0.0870   -0.1240 C   0  0  0  0  0  0  0  0  0  0  0  0
    0.7180    4.6350   -1.5590 C   0  0  0  0  0  0  0  0  0  0  0  0
    6.4290    3.4650   -0.8430 H   0  0  0  0  0  0  0  0  0  0  0  0
    6.8380    2.3590   -2.1980 H   0  0  0  0  0  0  0  0  0  0  0  0
    5.6680    3.6770   -2.4570 H   0  0  0  0  0  0  0  0  0  0  0  0
    6.0710    0.2800   -0.8980 H   0  0  0  0  0  0  0  0  0  0  0  0
    0.8000   -0.6950   -0.9820 H   0  0  0  0  0  0  0  0  0  0  0  0
    0.1880    0.1420    0.4620 H   0  0  0  0  0  0  0  0  0  0  0  0
    1.7920   -0.6220    0.4910 H   0  0  0  0  0  0  0  0  0  0  0  0
    0.3880    4.6140   -2.5940 H   0  0  0  0  0  0  0  0  0  0  0  0
    1.2950    5.5350   -1.3750 H   0  0  0  0  0  0  0  0  0  0  0  0
   -0.1430    4.6070   -0.8970 H   0  0  0  0  0  0  0  0  0  0  0  0
  1  2  1  0  0  0  0
  1 15  1  0  0  0  0
  1 16  1  0  0  0  0
  1 17  1  0  0  0  0
  2  6  1  0  0  0  0
  2  3  1  0  0  0  0
  3  4  2  0  0  0  0
  3 18  1  0  0  0  0
  4  5  1  0  0  0  0
  5 12  1  0  0  0  0
  5  6  2  0  0  0  0
  6  7  1  0  0  0  0
  7  8  2  0  0  0  0
  7  9  1  0  0  0  0
  9 10  1  0  0  0  0
  9 14  1  0  0  0  0
 10 11  2  0  0  0  0
 10 12  1  0  0  0  0
 12 13  1  0  0  0  0
 13 19  1  0  0  0  0
 13 20  1  0  0  0  0
 13 21  1  0  0  0  0
 14 22  1  0  0  0  0
 14 23  1  0  0  0  0
 14 24  1  0  0  0  0
M  END
>  <COMPND>
    mobley_7378987 

>  <AUTHOR>
    GENERATED BY OPEN BABEL 2.3.2

>  <MASTER>
        0    0    0    0    0    0    0    0   24    0   24    0

$$$$
