mobley_2881590.pdb
 OpenBabel09222014463D

 17 16  0  0  0  0  0  0  0  0999 V2000
    0.9980   -0.3580   -0.2740 C   0  0  0  0  0  0  0  0  0  0  0  0
    1.8180    0.7470   -0.9440 C   0  0  0  0  0  0  0  0  0  0  0  0
    1.1580    1.1800   -2.2510 C   0  0  0  0  0  0  0  0  0  0  0  0
    1.9990    1.9490   -0.0130 C   0  0  0  0  0  0  0  0  0  0  0  0
    2.6750    1.5480    1.1710 O   0  0  0  0  0  0  0  0  0  0  0  0
    2.8850    2.6090    2.0940 N   0  0  0  0  0  0  0  0  0  0  0  0
    2.4720    3.7280    1.7800 O   0  5  0  0  0  0  0  0  0  0  0  0
    3.4710    2.2470    3.1150 O   0  5  0  0  0  0  0  0  0  0  0  0
    1.4670   -0.6730    0.6640 H   0  0  0  0  0  0  0  0  0  0  0  0
    0.9140   -1.2370   -0.9220 H   0  0  0  0  0  0  0  0  0  0  0  0
   -0.0130   -0.0120   -0.0380 H   0  0  0  0  0  0  0  0  0  0  0  0
    2.8080    0.3290   -1.1710 H   0  0  0  0  0  0  0  0  0  0  0  0
    1.7380    1.9710   -2.7370 H   0  0  0  0  0  0  0  0  0  0  0  0
    0.1510    1.5700   -2.0670 H   0  0  0  0  0  0  0  0  0  0  0  0
    1.0740    0.3420   -2.9520 H   0  0  0  0  0  0  0  0  0  0  0  0
    2.6000    2.7250   -0.4990 H   0  0  0  0  0  0  0  0  0  0  0  0
    1.0320    2.3810    0.2670 H   0  0  0  0  0  0  0  0  0  0  0  0
  1  2  1  0  0  0  0
  1  9  1  0  0  0  0
  1 10  1  0  0  0  0
  1 11  1  0  0  0  0
  2  3  1  0  0  0  0
  2  4  1  0  0  0  0
  2 12  1  0  0  0  0
  3 13  1  0  0  0  0
  3 14  1  0  0  0  0
  3 15  1  0  0  0  0
  4  5  1  0  0  0  0
  4 16  1  0  0  0  0
  4 17  1  0  0  0  0
  5  6  1  0  0  0  0
  6  7  2  0  0  0  0
  6  8  2  0  0  0  0
M  CHG  2   7  -1   8  -1
M  END
>  <COMPND>
    mobley_2881590 

>  <AUTHOR>
    GENERATED BY OPEN BABEL 2.3.2

>  <MASTER>
        0    0    0    0    0    0    0    0   17    0   17    0

$$$$
