mobley_1967551.pdb
 OpenBabel09222014463D

  7  6  0  0  0  0  0  0  0  0999 V2000
   -0.5890   -0.9200   -0.0340 C   0  0  0  0  0  0  0  0  0  0  0  0
   -1.5030   -0.9600    1.1510 C   0  0  0  0  0  0  0  0  0  0  0  0
   -1.4760   -1.8490    1.9960 O   0  0  0  0  0  0  0  0  0  0  0  0
   -1.0570   -1.4520   -0.8650 H   0  0  0  0  0  0  0  0  0  0  0  0
   -0.3990    0.1160   -0.3260 H   0  0  0  0  0  0  0  0  0  0  0  0
    0.3560   -1.4030    0.2270 H   0  0  0  0  0  0  0  0  0  0  0  0
   -2.2230   -0.1270    1.2270 H   0  0  0  0  0  0  0  0  0  0  0  0
  1  2  1  0  0  0  0
  1  4  1  0  0  0  0
  1  5  1  0  0  0  0
  1  6  1  0  0  0  0
  2  3  2  0  0  0  0
  2  7  1  0  0  0  0
M  END
>  <COMPND>
    mobley_1967551 

>  <AUTHOR>
    GENERATED BY OPEN BABEL 2.3.2

>  <MASTER>
        0    0    0    0    0    0    0    0    7    0    7    0

$$$$
