mobley_2802855.pdb
 OpenBabel09222014463D

 14 13  0  0  0  0  0  0  0  0999 V2000
    1.9690   -0.0150   -0.1760 C   0  0  0  0  0  0  0  0  0  0  0  0
    0.6150    0.3980    0.3790 C   0  0  0  0  0  0  0  0  0  0  0  0
   -0.5260   -0.3380   -0.3230 C   0  0  0  0  0  0  0  0  0  0  0  0
   -1.8730    0.0830    0.2400 C   0  0  0  0  0  0  0  0  0  0  0  0
   -3.2990   -0.8740   -0.6780 Br  0  0  0  0  0  0  0  0  0  0  0  0
    2.7700    0.5230    0.3400 H   0  0  0  0  0  0  0  0  0  0  0  0
    2.0410    0.2130   -1.2450 H   0  0  0  0  0  0  0  0  0  0  0  0
    2.1380   -1.0880   -0.0410 H   0  0  0  0  0  0  0  0  0  0  0  0
    0.5880    0.1860    1.4540 H   0  0  0  0  0  0  0  0  0  0  0  0
    0.4910    1.4800    0.2580 H   0  0  0  0  0  0  0  0  0  0  0  0
   -0.4880   -0.1300   -1.4000 H   0  0  0  0  0  0  0  0  0  0  0  0
   -0.3920   -1.4200   -0.2060 H   0  0  0  0  0  0  0  0  0  0  0  0
   -2.0660    1.1490    0.0910 H   0  0  0  0  0  0  0  0  0  0  0  0
   -1.9680   -0.1610    1.3020 H   0  0  0  0  0  0  0  0  0  0  0  0
  1  2  1  0  0  0  0
  1  6  1  0  0  0  0
  1  7  1  0  0  0  0
  1  8  1  0  0  0  0
  2  3  1  0  0  0  0
  2  9  1  0  0  0  0
  2 10  1  0  0  0  0
  3  4  1  0  0  0  0
  3 11  1  0  0  0  0
  3 12  1  0  0  0  0
  4  5  1  0  0  0  0
  4 13  1  0  0  0  0
  4 14  1  0  0  0  0
M  END
>  <COMPND>
    mobley_2802855 

>  <AUTHOR>
    GENERATED BY OPEN BABEL 2.3.2

>  <MASTER>
        0    0    0    0    0    0    0    0   14    0   14    0

$$$$
