mobley_7578802.pdb
 OpenBabel09222014463D

  5  4  0  0  0  0  0  0  0  0999 V2000
    0.0110    0.0590   -0.0990 C   0  0  0  0  0  0  0  0  0  0  0  0
   -0.9880   -1.5560   -0.5170 Br  0  0  0  0  0  0  0  0  0  0  0  0
   -0.9500    1.2170    1.1320 Br  0  0  0  0  0  0  0  0  0  0  0  0
    1.8130   -0.3320    0.5180 Br  0  0  0  0  0  0  0  0  0  0  0  0
    0.1140    0.6130   -1.0340 H   0  0  0  0  0  0  0  0  0  0  0  0
  1  2  1  0  0  0  0
  1  3  1  0  0  0  0
  1  4  1  0  0  0  0
  1  5  1  0  0  0  0
M  END
>  <COMPND>
    mobley_7578802 

>  <AUTHOR>
    GENERATED BY OPEN BABEL 2.3.2

>  <MASTER>
        0    0    0    0    0    0    0    0    5    0    5    0

$$$$
