mobley_4395315.pdb
 OpenBabel09222014463D

 16 16  0  0  0  0  0  0  0  0999 V2000
    1.9680   -1.0330   -1.6050 C   0  0  0  0  0  0  0  0  0  0  0  0
    1.8850   -1.0360   -0.1120 C   0  0  0  0  0  0  0  0  0  0  0  0
    2.9210   -1.6310    0.6080 C   0  0  0  0  0  0  0  0  0  0  0  0
    2.8780   -1.6520    2.0020 C   0  0  0  0  0  0  0  0  0  0  0  0
    1.8000   -1.0790    2.6760 C   0  0  0  0  0  0  0  0  0  0  0  0
    0.7640   -0.4840    1.9550 C   0  0  0  0  0  0  0  0  0  0  0  0
    0.8070   -0.4630    0.5610 C   0  0  0  0  0  0  0  0  0  0  0  0
   -0.4930    0.2820   -0.2960 Cl  0  0  0  0  0  0  0  0  0  0  0  0
    3.8890   -2.2320    2.7060 O   0  0  0  0  0  0  0  0  0  0  0  0
    2.4860   -0.1320   -1.9480 H   0  0  0  0  0  0  0  0  0  0  0  0
    2.5090   -1.9130   -1.9680 H   0  0  0  0  0  0  0  0  0  0  0  0
    0.9690   -1.0590   -2.0520 H   0  0  0  0  0  0  0  0  0  0  0  0
    3.7640   -2.0780    0.0870 H   0  0  0  0  0  0  0  0  0  0  0  0
    1.7610   -1.0920    3.7620 H   0  0  0  0  0  0  0  0  0  0  0  0
   -0.0700   -0.0420    2.4950 H   0  0  0  0  0  0  0  0  0  0  0  0
    3.7160   -2.1670    3.6590 H   0  0  0  0  0  0  0  0  0  0  0  0
  1  2  1  0  0  0  0
  1 10  1  0  0  0  0
  1 11  1  0  0  0  0
  1 12  1  0  0  0  0
  2  7  2  0  0  0  0
  2  3  1  0  0  0  0
  3  4  2  0  0  0  0
  3 13  1  0  0  0  0
  4  5  1  0  0  0  0
  4  9  1  0  0  0  0
  5  6  2  0  0  0  0
  5 14  1  0  0  0  0
  6  7  1  0  0  0  0
  6 15  1  0  0  0  0
  7  8  1  0  0  0  0
  9 16  1  0  0  0  0
M  END
>  <COMPND>
    mobley_4395315 

>  <AUTHOR>
    GENERATED BY OPEN BABEL 2.3.2

>  <MASTER>
        0    0    0    0    0    0    0    0   16    0   16    0

$$$$
