mobley_349850.pdb
 OpenBabel09222014463D

 20 20  0  0  0  0  0  0  0  0999 V2000
    1.9300   -1.0140   -1.6030 C   0  0  0  0  0  0  0  0  0  0  0  0
    1.8850   -1.0360   -0.1120 C   0  0  0  0  0  0  0  0  0  0  0  0
    2.9210   -1.6310    0.6080 C   0  0  0  0  0  0  0  0  0  0  0  0
    2.8780   -1.6520    2.0020 C   0  0  0  0  0  0  0  0  0  0  0  0
    1.8000   -1.0790    2.6760 C   0  0  0  0  0  0  0  0  0  0  0  0
    0.7640   -0.4840    1.9550 C   0  0  0  0  0  0  0  0  0  0  0  0
    0.8070   -0.4630    0.5610 C   0  0  0  0  0  0  0  0  0  0  0  0
    1.7550   -1.1010    4.1290 C   0  0  0  0  0  0  0  0  0  0  0  0
    2.2560   -1.9770    4.8380 O   0  0  0  0  0  0  0  0  0  0  0  0
    1.0520    0.0320    4.8190 C   0  0  0  0  0  0  0  0  0  0  0  0
    2.4380   -0.1080   -1.9490 H   0  0  0  0  0  0  0  0  0  0  0  0
    2.4630   -1.8880   -1.9920 H   0  0  0  0  0  0  0  0  0  0  0  0
    0.9200   -1.0360   -2.0250 H   0  0  0  0  0  0  0  0  0  0  0  0
    3.7650   -2.0800    0.0920 H   0  0  0  0  0  0  0  0  0  0  0  0
    3.6910   -2.1180    2.5540 H   0  0  0  0  0  0  0  0  0  0  0  0
   -0.0810   -0.0350    2.4700 H   0  0  0  0  0  0  0  0  0  0  0  0
   -0.0050    0.0020    0.0080 H   0  0  0  0  0  0  0  0  0  0  0  0
   -0.0210   -0.1470    4.9900 H   0  0  0  0  0  0  0  0  0  0  0  0
    1.1460    0.9900    4.2850 H   0  0  0  0  0  0  0  0  0  0  0  0
    1.4480    0.2390    5.8290 H   0  0  0  0  0  0  0  0  0  0  0  0
  1  2  1  0  0  0  0
  1 11  1  0  0  0  0
  1 12  1  0  0  0  0
  1 13  1  0  0  0  0
  2  7  2  0  0  0  0
  2  3  1  0  0  0  0
  3  4  2  0  0  0  0
  3 14  1  0  0  0  0
  4  5  1  0  0  0  0
  4 15  1  0  0  0  0
  5  6  2  0  0  0  0
  5  8  1  0  0  0  0
  6  7  1  0  0  0  0
  6 16  1  0  0  0  0
  7 17  1  0  0  0  0
  8  9  2  0  0  0  0
  8 10  1  0  0  0  0
 10 18  1  0  0  0  0
 10 19  1  0  0  0  0
 10 20  1  0  0  0  0
M  END
>  <COMPND>
    mobley_349850 

>  <AUTHOR>
    GENERATED BY OPEN BABEL 2.3.2

>  <MASTER>
        0    0    0    0    0    0    0    0   20    0   20    0

$$$$
