mobley_8899867.pdb
 OpenBabel09222014463D

 16 16  0  0  0  0  0  0  0  0999 V2000
   -0.5070   -1.0670    1.8390 C   0  0  0  0  0  0  0  0  0  0  0  0
    0.3050   -0.0380    1.0510 C   0  0  0  0  0  0  0  0  0  0  0  0
    1.7690   -0.4550    1.1850 C   0  0  0  0  0  0  0  0  0  0  0  0
    1.8080   -1.3100    2.4420 C   0  0  0  0  0  0  0  0  0  0  0  0
    0.4990   -2.0830    2.3730 C   0  0  0  0  0  0  0  0  0  0  0  0
    1.8250   -0.4670    3.5880 O   0  0  0  0  0  0  0  0  0  0  0  0
   -1.2700   -1.5480    1.2180 H   0  0  0  0  0  0  0  0  0  0  0  0
   -1.0250   -0.5720    2.6690 H   0  0  0  0  0  0  0  0  0  0  0  0
    0.0010    0.0000    0.0000 H   0  0  0  0  0  0  0  0  0  0  0  0
    0.1490    0.9610    1.4730 H   0  0  0  0  0  0  0  0  0  0  0  0
    2.0580   -1.0540    0.3140 H   0  0  0  0  0  0  0  0  0  0  0  0
    2.4240    0.4200    1.2420 H   0  0  0  0  0  0  0  0  0  0  0  0
    2.6860   -1.9620    2.4750 H   0  0  0  0  0  0  0  0  0  0  0  0
    0.5910   -2.9150    1.6650 H   0  0  0  0  0  0  0  0  0  0  0  0
    0.1830   -2.4800    3.3420 H   0  0  0  0  0  0  0  0  0  0  0  0
    1.8500   -1.0500    4.3630 H   0  0  0  0  0  0  0  0  0  0  0  0
  1  5  1  0  0  0  0
  1  2  1  0  0  0  0
  1  7  1  0  0  0  0
  1  8  1  0  0  0  0
  2  3  1  0  0  0  0
  2  9  1  0  0  0  0
  2 10  1  0  0  0  0
  3  4  1  0  0  0  0
  3 11  1  0  0  0  0
  3 12  1  0  0  0  0
  4  5  1  0  0  0  0
  4  6  1  0  0  0  0
  4 13  1  0  0  0  0
  5 14  1  0  0  0  0
  5 15  1  0  0  0  0
  6 16  1  0  0  0  0
M  END
>  <COMPND>
    mobley_8899867 

>  <AUTHOR>
    GENERATED BY OPEN BABEL 2.3.2

>  <MASTER>
        0    0    0    0    0    0    0    0   16    0   16    0

$$$$
