mobley_5390332.pdb
 OpenBabel09222014463D

 17 16  0  0  0  0  0  0  0  0999 V2000
   -0.3790   -0.6980    0.7530 C   0  0  0  0  0  0  0  0  0  0  0  0
    0.4050   -0.5790    2.0500 C   0  0  0  0  0  0  0  0  0  0  0  0
    1.8850   -0.8880    1.8410 C   0  0  0  0  0  0  0  0  0  0  0  0
    2.6750   -0.7720    3.1240 C   0  0  0  0  0  0  0  0  0  0  0  0
    2.2100   -0.4690    4.2140 O   0  0  0  0  0  0  0  0  0  0  0  0
    3.9850   -1.0620    2.8650 O   0  0  0  0  0  0  0  0  0  0  0  0
    4.8650   -0.9950    3.9920 C   0  0  0  0  0  0  0  0  0  0  0  0
   -1.4350   -0.4720    0.9260 H   0  0  0  0  0  0  0  0  0  0  0  0
   -0.0010    0.0010    0.0010 H   0  0  0  0  0  0  0  0  0  0  0  0
   -0.3100   -1.7120    0.3460 H   0  0  0  0  0  0  0  0  0  0  0  0
   -0.0190   -1.2650    2.7930 H   0  0  0  0  0  0  0  0  0  0  0  0
    0.2870    0.4350    2.4520 H   0  0  0  0  0  0  0  0  0  0  0  0
    2.3100   -0.1870    1.1130 H   0  0  0  0  0  0  0  0  0  0  0  0
    1.9990   -1.9090    1.4600 H   0  0  0  0  0  0  0  0  0  0  0  0
    5.8720   -1.2440    3.6640 H   0  0  0  0  0  0  0  0  0  0  0  0
    4.5200   -1.6980    4.7470 H   0  0  0  0  0  0  0  0  0  0  0  0
    4.8390    0.0190    4.3840 H   0  0  0  0  0  0  0  0  0  0  0  0
  1  2  1  0  0  0  0
  1  8  1  0  0  0  0
  1  9  1  0  0  0  0
  1 10  1  0  0  0  0
  2  3  1  0  0  0  0
  2 11  1  0  0  0  0
  2 12  1  0  0  0  0
  3  4  1  0  0  0  0
  3 13  1  0  0  0  0
  3 14  1  0  0  0  0
  4  5  2  0  0  0  0
  4  6  1  0  0  0  0
  6  7  1  0  0  0  0
  7 15  1  0  0  0  0
  7 16  1  0  0  0  0
  7 17  1  0  0  0  0
M  END
>  <COMPND>
    mobley_5390332 

>  <AUTHOR>
    GENERATED BY OPEN BABEL 2.3.2

>  <MASTER>
        0    0    0    0    0    0    0    0   17    0   17    0

$$$$
