mobley_9671033.pdb
 OpenBabel09222014463D

 13 12  0  0  0  0  0  0  0  0999 V2000
    1.0420    0.0280   -0.3330 C   0  0  0  0  0  0  0  0  0  0  0  0
    1.4380    1.4520   -0.6970 C   0  0  0  0  0  0  0  0  0  0  0  0
    2.8930    1.5600   -1.1250 C   0  0  0  0  0  0  0  0  0  0  0  0
    3.2020    2.9510   -1.4590 N   0  0  0  0  0  0  0  0  0  0  0  0
    3.6200    3.6960   -0.5490 O   0  5  0  0  0  0  0  0  0  0  0  0
    3.0150    3.3240   -2.6350 O   0  5  0  0  0  0  0  0  0  0  0  0
   -0.0080   -0.0210   -0.0290 H   0  0  0  0  0  0  0  0  0  0  0  0
    1.1770   -0.6320   -1.1960 H   0  0  0  0  0  0  0  0  0  0  0  0
    1.6560   -0.3590    0.4860 H   0  0  0  0  0  0  0  0  0  0  0  0
    1.2730    2.0970    0.1740 H   0  0  0  0  0  0  0  0  0  0  0  0
    0.7830    1.8130   -1.4990 H   0  0  0  0  0  0  0  0  0  0  0  0
    3.5560    1.2540   -0.3110 H   0  0  0  0  0  0  0  0  0  0  0  0
    3.1050    0.9360   -1.9980 H   0  0  0  0  0  0  0  0  0  0  0  0
  1  2  1  0  0  0  0
  1  7  1  0  0  0  0
  1  8  1  0  0  0  0
  1  9  1  0  0  0  0
  2  3  1  0  0  0  0
  2 10  1  0  0  0  0
  2 11  1  0  0  0  0
  3  4  1  0  0  0  0
  3 12  1  0  0  0  0
  3 13  1  0  0  0  0
  4  5  2  0  0  0  0
  4  6  2  0  0  0  0
M  CHG  2   5  -1   6  -1
M  END
>  <COMPND>
    mobley_9671033 

>  <AUTHOR>
    GENERATED BY OPEN BABEL 2.3.2

>  <MASTER>
        0    0    0    0    0    0    0    0   13    0   13    0

$$$$
