mobley_5857.pdb
 OpenBabel09222014463D

 17 18  0  0  0  0  0  0  0  0999 V2000
    0.1300    2.0980   -0.4530 C   0  0  0  0  0  0  0  0  0  0  0  0
   -0.5470    0.8980   -0.2740 C   0  0  0  0  0  0  0  0  0  0  0  0
   -1.9320    0.8440   -0.4460 C   0  0  0  0  0  0  0  0  0  0  0  0
   -2.6680    1.9720   -0.7970 C   0  0  0  0  0  0  0  0  0  0  0  0
   -1.9750    3.1880   -0.9770 C   0  0  0  0  0  0  0  0  0  0  0  0
   -0.5810    3.2420   -0.8040 C   0  0  0  0  0  0  0  0  0  0  0  0
   -2.7150    4.3240   -1.3300 C   0  0  0  0  0  0  0  0  0  0  0  0
   -4.0900    4.2380   -1.4940 C   0  0  0  0  0  0  0  0  0  0  0  0
   -4.6800    3.0060   -1.2960 C   0  0  0  0  0  0  0  0  0  0  0  0
   -4.0030    1.8860   -0.9550 N   0  0  0  0  0  0  0  0  0  0  0  0
    1.2070    2.1430   -0.3220 H   0  0  0  0  0  0  0  0  0  0  0  0
    0.0000    0.0000   -0.0010 H   0  0  0  0  0  0  0  0  0  0  0  0
   -2.4390   -0.1080   -0.3000 H   0  0  0  0  0  0  0  0  0  0  0  0
   -0.0420    4.1760   -0.9410 H   0  0  0  0  0  0  0  0  0  0  0  0
   -2.2240    5.2820   -1.4810 H   0  0  0  0  0  0  0  0  0  0  0  0
   -4.6780    5.1060   -1.7680 H   0  0  0  0  0  0  0  0  0  0  0  0
   -5.7520    2.8780   -1.4110 H   0  0  0  0  0  0  0  0  0  0  0  0
  1  6  2  0  0  0  0
  1  2  1  0  0  0  0
  1 11  1  0  0  0  0
  2  3  2  0  0  0  0
  2 12  1  0  0  0  0
  3  4  1  0  0  0  0
  3 13  1  0  0  0  0
  4 10  2  0  0  0  0
  4  5  1  0  0  0  0
  5  6  1  0  0  0  0
  5  7  2  0  0  0  0
  6 14  1  0  0  0  0
  7  8  1  0  0  0  0
  7 15  1  0  0  0  0
  8  9  2  0  0  0  0
  8 16  1  0  0  0  0
  9 10  1  0  0  0  0
  9 17  1  0  0  0  0
M  END
>  <COMPND>
    mobley_5857 

>  <AUTHOR>
    GENERATED BY OPEN BABEL 2.3.2

>  <MASTER>
        0    0    0    0    0    0    0    0   17    0   17    0

$$$$
