mobley_2844990.pdb
 OpenBabel09222014463D

 22 24  0  0  0  0  0  0  0  0999 V2000
   -1.0040   -0.2570    0.3260 C   0  0  0  0  0  0  0  0  0  0  0  0
   -1.4370   -1.5820    0.2690 C   0  0  0  0  0  0  0  0  0  0  0  0
   -2.7270   -1.9050    0.6890 C   0  0  0  0  0  0  0  0  0  0  0  0
   -3.5800   -0.9100    1.1630 C   0  0  0  0  0  0  0  0  0  0  0  0
   -3.1490    0.4150    1.2200 C   0  0  0  0  0  0  0  0  0  0  0  0
   -1.8580    0.7400    0.8000 C   0  0  0  0  0  0  0  0  0  0  0  0
   -1.3200    2.3740    0.8640 Cl  0  0  0  0  0  0  0  0  0  0  0  0
   -4.8560   -1.1830    1.5850 O   0  0  0  0  0  0  0  0  0  0  0  0
   -5.2390   -2.4980    1.5120 C   0  0  0  0  0  0  0  0  0  0  0  0
   -6.5290   -2.8210    1.9320 C   0  0  0  0  0  0  0  0  0  0  0  0
   -6.9620   -4.1460    1.8750 C   0  0  0  0  0  0  0  0  0  0  0  0
   -6.1070   -5.1430    1.4010 C   0  0  0  0  0  0  0  0  0  0  0  0
   -4.8170   -4.8180    0.9820 C   0  0  0  0  0  0  0  0  0  0  0  0
   -4.3860   -3.4940    1.0380 C   0  0  0  0  0  0  0  0  0  0  0  0
   -3.1090   -3.2200    0.6160 O   0  0  0  0  0  0  0  0  0  0  0  0
   -3.7290   -6.0340    0.3830 Cl  0  0  0  0  0  0  0  0  0  0  0  0
   -6.6600   -6.7920    1.3340 Cl  0  0  0  0  0  0  0  0  0  0  0  0
   -8.5740   -4.4760    2.4110 Cl  0  0  0  0  0  0  0  0  0  0  0  0
    0.0030   -0.0140   -0.0050 H   0  0  0  0  0  0  0  0  0  0  0  0
   -0.7670   -2.3530   -0.1020 H   0  0  0  0  0  0  0  0  0  0  0  0
   -3.8200    1.1860    1.5900 H   0  0  0  0  0  0  0  0  0  0  0  0
   -7.1860   -2.0370    2.2990 H   0  0  0  0  0  0  0  0  0  0  0  0
  1  6  2  0  0  0  0
  1  2  1  0  0  0  0
  1 19  1  0  0  0  0
  2  3  2  0  0  0  0
  2 20  1  0  0  0  0
  3 15  1  0  0  0  0
  3  4  1  0  0  0  0
  4  5  2  0  0  0  0
  4  8  1  0  0  0  0
  5  6  1  0  0  0  0
  5 21  1  0  0  0  0
  6  7  1  0  0  0  0
  8  9  1  0  0  0  0
  9 14  2  0  0  0  0
  9 10  1  0  0  0  0
 10 11  2  0  0  0  0
 10 22  1  0  0  0  0
 11 12  1  0  0  0  0
 11 18  1  0  0  0  0
 12 13  2  0  0  0  0
 12 17  1  0  0  0  0
 13 14  1  0  0  0  0
 13 16  1  0  0  0  0
 14 15  1  0  0  0  0
M  END
>  <COMPND>
    mobley_2844990 

>  <AUTHOR>
    GENERATED BY OPEN BABEL 2.3.2

>  <MASTER>
        0    0    0    0    0    0    0    0   22    0   22    0

$$$$
