mobley_4694328.pdb
 OpenBabel09222014463D

 25 24  0  0  0  0  0  0  0  0999 V2000
   -4.1340    1.3850    0.8000 C   0  0  0  0  0  0  0  0  0  0  0  0
   -3.2210    0.1740    0.9250 C   0  0  0  0  0  0  0  0  0  0  0  0
   -1.7960    0.5030    0.4780 C   0  0  0  0  0  0  0  0  0  0  0  0
   -0.8350   -0.6840    0.5850 C   0  0  0  0  0  0  0  0  0  0  0  0
    0.5910   -0.3550    0.1370 C   0  0  0  0  0  0  0  0  0  0  0  0
    1.5060   -1.5780    0.2660 C   0  0  0  0  0  0  0  0  0  0  0  0
    2.9380   -1.2840   -0.1740 C   0  0  0  0  0  0  0  0  0  0  0  0
    3.8710   -2.4670   -0.0610 C   0  0  0  0  0  0  0  0  0  0  0  0
    3.5490   -3.5790    0.3420 O   0  0  0  0  0  0  0  0  0  0  0  0
   -5.1520    1.1430    1.1220 H   0  0  0  0  0  0  0  0  0  0  0  0
   -4.1780    1.7200   -0.2410 H   0  0  0  0  0  0  0  0  0  0  0  0
   -3.7690    2.2170    1.4100 H   0  0  0  0  0  0  0  0  0  0  0  0
   -3.6330   -0.6390    0.3190 H   0  0  0  0  0  0  0  0  0  0  0  0
   -3.2160   -0.1650    1.9680 H   0  0  0  0  0  0  0  0  0  0  0  0
   -1.8080    0.8750   -0.5540 H   0  0  0  0  0  0  0  0  0  0  0  0
   -1.4040    1.3170    1.1010 H   0  0  0  0  0  0  0  0  0  0  0  0
   -0.8140   -1.0120    1.6320 H   0  0  0  0  0  0  0  0  0  0  0  0
   -1.2230   -1.5250   -0.0020 H   0  0  0  0  0  0  0  0  0  0  0  0
    0.9800    0.4720    0.7410 H   0  0  0  0  0  0  0  0  0  0  0  0
    0.5880   -0.0210   -0.9070 H   0  0  0  0  0  0  0  0  0  0  0  0
    1.1090   -2.3830   -0.3650 H   0  0  0  0  0  0  0  0  0  0  0  0
    1.4950   -1.9460    1.2990 H   0  0  0  0  0  0  0  0  0  0  0  0
    3.3620   -0.4600    0.4100 H   0  0  0  0  0  0  0  0  0  0  0  0
    2.9410   -0.9840   -1.2280 H   0  0  0  0  0  0  0  0  0  0  0  0
    4.9050   -2.2740   -0.3950 H   0  0  0  0  0  0  0  0  0  0  0  0
  1  2  1  0  0  0  0
  1 10  1  0  0  0  0
  1 11  1  0  0  0  0
  1 12  1  0  0  0  0
  2  3  1  0  0  0  0
  2 13  1  0  0  0  0
  2 14  1  0  0  0  0
  3  4  1  0  0  0  0
  3 15  1  0  0  0  0
  3 16  1  0  0  0  0
  4  5  1  0  0  0  0
  4 17  1  0  0  0  0
  4 18  1  0  0  0  0
  5  6  1  0  0  0  0
  5 19  1  0  0  0  0
  5 20  1  0  0  0  0
  6  7  1  0  0  0  0
  6 21  1  0  0  0  0
  6 22  1  0  0  0  0
  7  8  1  0  0  0  0
  7 23  1  0  0  0  0
  7 24  1  0  0  0  0
  8  9  2  0  0  0  0
  8 25  1  0  0  0  0
M  END
>  <COMPND>
    mobley_4694328 

>  <AUTHOR>
    GENERATED BY OPEN BABEL 2.3.2

>  <MASTER>
        0    0    0    0    0    0    0    0   25    0   25    0

$$$$
