mobley_3999471.pdb
 OpenBabel09222014463D

  8  7  0  0  0  0  0  0  0  0999 V2000
   -0.4710    0.6840    0.7150 C   0  0  0  0  0  0  0  0  0  0  0  0
   -0.0880    0.3250    2.1390 C   0  0  0  0  0  0  0  0  0  0  0  0
   -0.8870    1.4230    3.2880 Cl  0  0  0  0  0  0  0  0  0  0  0  0
    1.6770    0.4130    2.3440 Cl  0  0  0  0  0  0  0  0  0  0  0  0
    0.0090    0.0210   -0.0150 H   0  0  0  0  0  0  0  0  0  0  0  0
   -1.5550    0.6110    0.5720 H   0  0  0  0  0  0  0  0  0  0  0  0
   -0.1780    1.7130    0.4790 H   0  0  0  0  0  0  0  0  0  0  0  0
   -0.4020   -0.6950    2.3770 H   0  0  0  0  0  0  0  0  0  0  0  0
  1  2  1  0  0  0  0
  1  5  1  0  0  0  0
  1  6  1  0  0  0  0
  1  7  1  0  0  0  0
  2  3  1  0  0  0  0
  2  4  1  0  0  0  0
  2  8  1  0  0  0  0
M  END
>  <COMPND>
    mobley_3999471 

>  <AUTHOR>
    GENERATED BY OPEN BABEL 2.3.2

>  <MASTER>
        0    0    0    0    0    0    0    0    8    0    8    0

$$$$
