mobley_2213823.pdb
 OpenBabel09222014463D

 20 19  0  0  0  0  0  0  0  0999 V2000
    0.3890   -0.9600   -0.3920 C   0  0  0  0  0  0  0  0  0  0  0  0
   -0.7740   -1.8070   -0.8890 C   0  0  0  0  0  0  0  0  0  0  0  0
   -0.3420   -3.0440   -1.7050 C   0  0  0  0  0  0  0  0  0  0  0  0
    0.5420   -3.9830   -0.8790 C   0  0  0  0  0  0  0  0  0  0  0  0
   -1.6010   -3.7660   -2.2290 C   0  0  0  0  0  0  0  0  0  0  0  0
   -1.3000   -5.0090   -3.0540 C   0  0  0  0  0  0  0  0  0  0  0  0
    0.0320   -0.0980    0.1790 H   0  0  0  0  0  0  0  0  0  0  0  0
    1.0330   -1.5570    0.2630 H   0  0  0  0  0  0  0  0  0  0  0  0
    1.0080   -0.5990   -1.2180 H   0  0  0  0  0  0  0  0  0  0  0  0
   -1.4100   -1.1690   -1.5160 H   0  0  0  0  0  0  0  0  0  0  0  0
   -1.3850   -2.1160   -0.0320 H   0  0  0  0  0  0  0  0  0  0  0  0
    0.2400   -2.6980   -2.5700 H   0  0  0  0  0  0  0  0  0  0  0  0
    0.8450   -4.8570   -1.4650 H   0  0  0  0  0  0  0  0  0  0  0  0
    0.0230   -4.3360    0.0170 H   0  0  0  0  0  0  0  0  0  0  0  0
    1.4480   -3.4760   -0.5330 H   0  0  0  0  0  0  0  0  0  0  0  0
   -2.2540   -4.0400   -1.3910 H   0  0  0  0  0  0  0  0  0  0  0  0
   -2.1740   -3.0750   -2.8610 H   0  0  0  0  0  0  0  0  0  0  0  0
   -2.2350   -5.4690   -3.3920 H   0  0  0  0  0  0  0  0  0  0  0  0
   -0.7590   -5.7590   -2.4700 H   0  0  0  0  0  0  0  0  0  0  0  0
   -0.7070   -4.7600   -3.9390 H   0  0  0  0  0  0  0  0  0  0  0  0
  1  2  1  0  0  0  0
  1  7  1  0  0  0  0
  1  8  1  0  0  0  0
  1  9  1  0  0  0  0
  2  3  1  0  0  0  0
  2 10  1  0  0  0  0
  2 11  1  0  0  0  0
  3  4  1  0  0  0  0
  3  5  1  0  0  0  0
  3 12  1  0  0  0  0
  4 13  1  0  0  0  0
  4 14  1  0  0  0  0
  4 15  1  0  0  0  0
  5  6  1  0  0  0  0
  5 16  1  0  0  0  0
  5 17  1  0  0  0  0
  6 18  1  0  0  0  0
  6 19  1  0  0  0  0
  6 20  1  0  0  0  0
M  END
>  <COMPND>
    mobley_2213823 

>  <AUTHOR>
    GENERATED BY OPEN BABEL 2.3.2

>  <MASTER>
        0    0    0    0    0    0    0    0   20    0   20    0

$$$$
