mobley_1034539.pdb
 OpenBabel09222014463D

 22 23  0  0  0  0  0  0  0  0999 V2000
    1.8850   -1.0360   -0.1120 C   0  0  0  0  0  0  0  0  0  0  0  0
    2.9210   -1.6310    0.6080 C   0  0  0  0  0  0  0  0  0  0  0  0
    2.8780   -1.6520    2.0020 C   0  0  0  0  0  0  0  0  0  0  0  0
    1.8000   -1.0790    2.6760 C   0  0  0  0  0  0  0  0  0  0  0  0
    0.7640   -0.4840    1.9550 C   0  0  0  0  0  0  0  0  0  0  0  0
    0.8070   -0.4630    0.5610 C   0  0  0  0  0  0  0  0  0  0  0  0
   -0.2670    0.1540   -0.1870 C   0  0  0  0  0  0  0  0  0  0  0  0
   -0.1520    1.5110   -0.4880 C   0  0  0  0  0  0  0  0  0  0  0  0
   -1.1600    2.1540   -1.2070 C   0  0  0  0  0  0  0  0  0  0  0  0
   -2.2820    1.4400   -1.6260 C   0  0  0  0  0  0  0  0  0  0  0  0
   -2.3970    0.0820   -1.3260 C   0  0  0  0  0  0  0  0  0  0  0  0
   -1.3890   -0.5600   -0.6060 C   0  0  0  0  0  0  0  0  0  0  0  0
   -1.5140   -2.2530   -0.2160 Cl  0  0  0  0  0  0  0  0  0  0  0  0
   -3.7980   -0.8120   -1.8470 Cl  0  0  0  0  0  0  0  0  0  0  0  0
   -3.5310    2.2550   -2.5230 Cl  0  0  0  0  0  0  0  0  0  0  0  0
   -0.9430    3.8380   -1.5430 Cl  0  0  0  0  0  0  0  0  0  0  0  0
    1.6920   -1.0700    4.4010 Cl  0  0  0  0  0  0  0  0  0  0  0  0
    4.1940   -2.3990    2.8380 Cl  0  0  0  0  0  0  0  0  0  0  0  0
    1.9320   -1.0280   -1.1990 H   0  0  0  0  0  0  0  0  0  0  0  0
    3.7530   -2.0750    0.0670 H   0  0  0  0  0  0  0  0  0  0  0  0
   -0.0790   -0.0350    2.4780 H   0  0  0  0  0  0  0  0  0  0  0  0
    0.7250    2.0680   -0.1630 H   0  0  0  0  0  0  0  0  0  0  0  0
  1  6  2  0  0  0  0
  1  2  1  0  0  0  0
  1 19  1  0  0  0  0
  2  3  2  0  0  0  0
  2 20  1  0  0  0  0
  3  4  1  0  0  0  0
  3 18  1  0  0  0  0
  4  5  2  0  0  0  0
  4 17  1  0  0  0  0
  5  6  1  0  0  0  0
  5 21  1  0  0  0  0
  6  7  1  0  0  0  0
  7 12  2  0  0  0  0
  7  8  1  0  0  0  0
  8  9  2  0  0  0  0
  8 22  1  0  0  0  0
  9 10  1  0  0  0  0
  9 16  1  0  0  0  0
 10 11  2  0  0  0  0
 10 15  1  0  0  0  0
 11 12  1  0  0  0  0
 11 14  1  0  0  0  0
 12 13  1  0  0  0  0
M  END
>  <COMPND>
    mobley_1034539 

>  <AUTHOR>
    GENERATED BY OPEN BABEL 2.3.2

>  <MASTER>
        0    0    0    0    0    0    0    0   22    0   22    0

$$$$
