mobley_2725802.pdb
 OpenBabel09222014463D

 19 19  0  0  0  0  0  0  0  0999 V2000
    0.1450   -2.7770    4.2010 C   0  0  0  0  0  0  0  0  0  0  0  0
   -0.8580   -2.3750    3.1480 C   0  0  0  0  0  0  0  0  0  0  0  0
   -2.0620   -2.3650    3.4060 O   0  0  0  0  0  0  0  0  0  0  0  0
   -0.3270   -2.0400    1.9170 N   0  0  0  0  0  0  0  0  0  0  0  0
    1.0860   -2.0290    1.5490 C   0  0  0  0  0  0  0  0  0  0  0  0
    1.0830   -1.8650    0.0350 C   0  0  0  0  0  0  0  0  0  0  0  0
   -0.1850   -1.0590   -0.2180 C   0  0  0  0  0  0  0  0  0  0  0  0
   -1.1610   -1.6370    0.7940 C   0  0  0  0  0  0  0  0  0  0  0  0
    0.3240   -3.8550    4.1630 H   0  0  0  0  0  0  0  0  0  0  0  0
   -0.2250   -2.5170    5.1970 H   0  0  0  0  0  0  0  0  0  0  0  0
    1.0930   -2.2570    4.0400 H   0  0  0  0  0  0  0  0  0  0  0  0
    1.5540   -1.1700    2.0430 H   0  0  0  0  0  0  0  0  0  0  0  0
    1.5860   -2.9460    1.8730 H   0  0  0  0  0  0  0  0  0  0  0  0
    1.9860   -1.3730   -0.3370 H   0  0  0  0  0  0  0  0  0  0  0  0
    1.0000   -2.8460   -0.4480 H   0  0  0  0  0  0  0  0  0  0  0  0
    0.0000    0.0000    0.0000 H   0  0  0  0  0  0  0  0  0  0  0  0
   -0.5460   -1.1400   -1.2470 H   0  0  0  0  0  0  0  0  0  0  0  0
   -1.9250   -0.9220    1.1130 H   0  0  0  0  0  0  0  0  0  0  0  0
   -1.6560   -2.5350    0.4080 H   0  0  0  0  0  0  0  0  0  0  0  0
  1  2  1  0  0  0  0
  1  9  1  0  0  0  0
  1 10  1  0  0  0  0
  1 11  1  0  0  0  0
  2  3  2  0  0  0  0
  2  4  1  0  0  0  0
  4  8  1  0  0  0  0
  4  5  1  0  0  0  0
  5  6  1  0  0  0  0
  5 12  1  0  0  0  0
  5 13  1  0  0  0  0
  6  7  1  0  0  0  0
  6 14  1  0  0  0  0
  6 15  1  0  0  0  0
  7  8  1  0  0  0  0
  7 16  1  0  0  0  0
  7 17  1  0  0  0  0
  8 18  1  0  0  0  0
  8 19  1  0  0  0  0
M  END
>  <COMPND>
    mobley_2725802 

>  <AUTHOR>
    GENERATED BY OPEN BABEL 2.3.2

>  <MASTER>
        0    0    0    0    0    0    0    0   19    0   19    0

$$$$
