mobley_9246351.pdb
 OpenBabel09222014463D

  5  4  0  0  0  0  0  0  0  0999 V2000
   -0.0930    0.1110    0.1010 C   0  0  0  0  0  0  0  0  0  0  0  0
   -0.8470   -1.4830   -0.6930 Br  0  0  0  0  0  0  0  0  0  0  0  0
    1.7760    0.3680   -0.3210 Br  0  0  0  0  0  0  0  0  0  0  0  0
   -0.1890    0.0300    1.1850 H   0  0  0  0  0  0  0  0  0  0  0  0
   -0.6480    0.9730   -0.2720 H   0  0  0  0  0  0  0  0  0  0  0  0
  1  2  1  0  0  0  0
  1  3  1  0  0  0  0
  1  4  1  0  0  0  0
  1  5  1  0  0  0  0
M  END
>  <COMPND>
    mobley_9246351 

>  <AUTHOR>
    GENERATED BY OPEN BABEL 2.3.2

>  <MASTER>
        0    0    0    0    0    0    0    0    5    0    5    0

$$$$
