mobley_9073553.pdb
 OpenBabel09222014463D

  9  8  0  0  0  0  0  0  0  0999 V2000
    0.9860   -0.3290    0.3400 C   0  0  0  0  0  0  0  0  0  0  0  0
    1.2240    0.1820    2.0580 S   0  0  0  0  0  0  0  0  0  0  0  0
    2.8850   -0.4870    2.3100 C   0  0  0  0  0  0  0  0  0  0  0  0
    0.0030   -0.0060   -0.0110 H   0  0  0  0  0  0  0  0  0  0  0  0
    1.0510   -1.4170    0.2640 H   0  0  0  0  0  0  0  0  0  0  0  0
    1.7560    0.1200   -0.2910 H   0  0  0  0  0  0  0  0  0  0  0  0
    3.2180   -0.2720    3.3270 H   0  0  0  0  0  0  0  0  0  0  0  0
    3.5770   -0.0290    1.6010 H   0  0  0  0  0  0  0  0  0  0  0  0
    2.8730   -1.5670    2.1550 H   0  0  0  0  0  0  0  0  0  0  0  0
  1  2  1  0  0  0  0
  1  4  1  0  0  0  0
  1  5  1  0  0  0  0
  1  6  1  0  0  0  0
  2  3  1  0  0  0  0
  3  7  1  0  0  0  0
  3  8  1  0  0  0  0
  3  9  1  0  0  0  0
M  END
>  <COMPND>
    mobley_9073553 

>  <AUTHOR>
    GENERATED BY OPEN BABEL 2.3.2

>  <MASTER>
        0    0    0    0    0    0    0    0    9    0    9    0

$$$$
