mobley_994483.pdb
 OpenBabel09222014463D

  8  7  0  0  0  0  0  0  0  0999 V2000
    0.0130   -0.7250    0.8210 C   0  0  0  0  0  0  0  0  0  0  0  0
    1.1400   -0.4430    1.7860 C   0  0  0  0  0  0  0  0  0  0  0  0
    2.8460   -0.5450    0.8590 Br  0  0  0  0  0  0  0  0  0  0  0  0
   -0.9510   -0.6680    1.3370 H   0  0  0  0  0  0  0  0  0  0  0  0
    0.0000    0.0000    0.0000 H   0  0  0  0  0  0  0  0  0  0  0  0
    0.1030   -1.7240    0.3830 H   0  0  0  0  0  0  0  0  0  0  0  0
    1.1720   -1.1780    2.5940 H   0  0  0  0  0  0  0  0  0  0  0  0
    1.0670    0.5630    2.2080 H   0  0  0  0  0  0  0  0  0  0  0  0
  1  2  1  0  0  0  0
  1  4  1  0  0  0  0
  1  5  1  0  0  0  0
  1  6  1  0  0  0  0
  2  3  1  0  0  0  0
  2  7  1  0  0  0  0
  2  8  1  0  0  0  0
M  END
>  <COMPND>
    mobley_994483 

>  <AUTHOR>
    GENERATED BY OPEN BABEL 2.3.2

>  <MASTER>
        0    0    0    0    0    0    0    0    8    0    8    0

$$$$
