mobley_5499659.pdb
 OpenBabel09222014463D

 12 12  0  0  0  0  0  0  0  0999 V2000
    3.6420   -2.4130   -1.7030 C   0  0  0  0  0  0  0  0  0  0  0  0
    2.3540   -2.0370   -1.1810 N   0  0  0  0  0  0  0  0  0  0  0  0
    1.9500   -0.7740   -0.8260 C   0  0  0  0  0  0  0  0  0  0  0  0
    0.6550   -0.7780   -0.3640 C   0  0  0  0  0  0  0  0  0  0  0  0
    0.2600   -2.0840   -0.4420 N   0  0  0  0  0  0  0  0  0  0  0  0
    1.3130   -2.8020   -0.9370 C   0  0  0  0  0  0  0  0  0  0  0  0
    3.5990   -2.3410   -2.7930 H   0  0  0  0  0  0  0  0  0  0  0  0
    4.4070   -1.7400   -1.3060 H   0  0  0  0  0  0  0  0  0  0  0  0
    3.8710   -3.4370   -1.3950 H   0  0  0  0  0  0  0  0  0  0  0  0
    2.6380    0.0540   -0.9340 H   0  0  0  0  0  0  0  0  0  0  0  0
    0.0270    0.0210   -0.0060 H   0  0  0  0  0  0  0  0  0  0  0  0
    1.2740   -3.8710   -1.1010 H   0  0  0  0  0  0  0  0  0  0  0  0
  1  2  1  0  0  0  0
  1  7  1  0  0  0  0
  1  8  1  0  0  0  0
  1  9  1  0  0  0  0
  2  6  1  0  0  0  0
  2  3  1  0  0  0  0
  3  4  2  0  0  0  0
  3 10  1  0  0  0  0
  4  5  1  0  0  0  0
  4 11  1  0  0  0  0
  5  6  2  0  0  0  0
  6 12  1  0  0  0  0
M  END
>  <COMPND>
    mobley_5499659 

>  <AUTHOR>
    GENERATED BY OPEN BABEL 2.3.2

>  <MASTER>
        0    0    0    0    0    0    0    0   12    0   12    0

$$$$
