mobley_7176290.pdb
 OpenBabel09222014463D

 15 15  0  0  0  0  0  0  0  0999 V2000
    1.8850   -1.0360   -0.1120 C   0  0  0  0  0  0  0  0  0  0  0  0
    2.9210   -1.6310    0.6080 C   0  0  0  0  0  0  0  0  0  0  0  0
    2.8780   -1.6520    2.0020 C   0  0  0  0  0  0  0  0  0  0  0  0
    1.8000   -1.0790    2.6760 C   0  0  0  0  0  0  0  0  0  0  0  0
    0.7640   -0.4840    1.9550 C   0  0  0  0  0  0  0  0  0  0  0  0
    0.8070   -0.4630    0.5610 C   0  0  0  0  0  0  0  0  0  0  0  0
   -0.2890    0.0750    2.6110 O   0  0  0  0  0  0  0  0  0  0  0  0
    3.9330   -2.2570    2.7360 N   0  0  0  0  0  0  0  0  0  0  0  0
    3.8750   -2.2660    3.9890 O   0  5  0  0  0  0  0  0  0  0  0  0
    4.8940   -2.7670    2.1110 O   0  5  0  0  0  0  0  0  0  0  0  0
    1.9190   -1.0200   -1.1980 H   0  0  0  0  0  0  0  0  0  0  0  0
    3.7560   -2.0740    0.0710 H   0  0  0  0  0  0  0  0  0  0  0  0
    1.7600   -1.0910    3.7630 H   0  0  0  0  0  0  0  0  0  0  0  0
    0.0030   -0.0010   -0.0060 H   0  0  0  0  0  0  0  0  0  0  0  0
   -0.9230    0.4450    1.9770 H   0  0  0  0  0  0  0  0  0  0  0  0
  1  6  2  0  0  0  0
  1  2  1  0  0  0  0
  1 11  1  0  0  0  0
  2  3  2  0  0  0  0
  2 12  1  0  0  0  0
  3  4  1  0  0  0  0
  3  8  1  0  0  0  0
  4  5  2  0  0  0  0
  4 13  1  0  0  0  0
  5  6  1  0  0  0  0
  5  7  1  0  0  0  0
  6 14  1  0  0  0  0
  7 15  1  0  0  0  0
  8  9  2  0  0  0  0
  8 10  2  0  0  0  0
M  CHG  2   9  -1  10  -1
M  END
>  <COMPND>
    mobley_7176290 

>  <AUTHOR>
    GENERATED BY OPEN BABEL 2.3.2

>  <MASTER>
        0    0    0    0    0    0    0    0   15    0   15    0

$$$$
