mobley_9246215.pdb
 OpenBabel09222014463D

 13 12  0  0  0  0  0  0  0  0999 V2000
   -0.5980    0.6830    2.0450 C   0  0  0  0  0  0  0  0  0  0  0  0
    0.4010    0.3350    1.2260 C   0  0  0  0  0  0  0  0  0  0  0  0
    0.4120    0.6160   -0.2470 C   0  0  0  0  0  0  0  0  0  0  0  0
    0.5020   -0.6480   -1.0510 C   0  0  0  0  0  0  0  0  0  0  0  0
   -0.4210   -1.0370   -1.9380 C   0  0  0  0  0  0  0  0  0  0  0  0
   -0.5440    0.4570    3.1040 H   0  0  0  0  0  0  0  0  0  0  0  0
   -1.4820    1.1930    1.6780 H   0  0  0  0  0  0  0  0  0  0  0  0
    1.2660   -0.1700    1.6490 H   0  0  0  0  0  0  0  0  0  0  0  0
   -0.4720    1.1980   -0.5380 H   0  0  0  0  0  0  0  0  0  0  0  0
    1.2830    1.2400   -0.4780 H   0  0  0  0  0  0  0  0  0  0  0  0
    1.3800   -1.2730   -0.9080 H   0  0  0  0  0  0  0  0  0  0  0  0
   -0.2940   -1.9600   -2.4930 H   0  0  0  0  0  0  0  0  0  0  0  0
   -1.3120   -0.4490   -2.1250 H   0  0  0  0  0  0  0  0  0  0  0  0
  1  2  2  0  0  0  0
  1  6  1  0  0  0  0
  1  7  1  0  0  0  0
  2  3  1  0  0  0  0
  2  8  1  0  0  0  0
  3  4  1  0  0  0  0
  3  9  1  0  0  0  0
  3 10  1  0  0  0  0
  4  5  2  0  0  0  0
  4 11  1  0  0  0  0
  5 12  1  0  0  0  0
  5 13  1  0  0  0  0
M  END
>  <COMPND>
    mobley_9246215 

>  <AUTHOR>
    GENERATED BY OPEN BABEL 2.3.2

>  <MASTER>
        0    0    0    0    0    0    0    0   13    0   13    0

$$$$
