mobley_4506634.pdb
 OpenBabel09222014463D

  8  7  0  0  1  0  0  0  0  0999 V2000
   -0.3270   -0.6300    0.1780 C   0  0  2  0  0  0  0  0  0  0  0  0
    0.3070   -1.5100    0.3180 H   0  0  0  0  0  0  0  0  0  0  0  0
    0.4870    0.5730   -0.2340 C   0  0  0  0  0  0  0  0  0  0  0  0
    1.1370    0.3470   -1.3990 F   0  0  0  0  0  0  0  0  0  0  0  0
   -0.3100    1.6480   -0.4290 F   0  0  0  0  0  0  0  0  0  0  0  0
    1.4090    0.9100    0.6930 F   0  0  0  0  0  0  0  0  0  0  0  0
   -1.5630   -1.0140   -1.0340 Cl  0  0  0  0  0  0  0  0  0  0  0  0
   -1.1950   -0.2960    1.8880 Br  0  0  0  0  0  0  0  0  0  0  0  0
  1  2  1  1  0  0  0
  1  3  1  0  0  0  0
  1  7  1  0  0  0  0
  1  8  1  0  0  0  0
  3  4  1  0  0  0  0
  3  5  1  0  0  0  0
  3  6  1  0  0  0  0
M  END
>  <COMPND>
    mobley_4506634 

>  <AUTHOR>
    GENERATED BY OPEN BABEL 2.3.2

>  <MASTER>
        0    0    0    0    0    0    0    0    8    0    8    0

$$$$
