mobley_7688753.pdb
 OpenBabel09222014463D

 15 15  0  0  0  0  0  0  0  0999 V2000
    1.8850   -1.0360   -0.1120 C   0  0  0  0  0  0  0  0  0  0  0  0
    2.9210   -1.6310    0.6080 C   0  0  0  0  0  0  0  0  0  0  0  0
    2.8780   -1.6520    2.0020 C   0  0  0  0  0  0  0  0  0  0  0  0
    1.8000   -1.0790    2.6760 C   0  0  0  0  0  0  0  0  0  0  0  0
    0.7640   -0.4840    1.9550 C   0  0  0  0  0  0  0  0  0  0  0  0
    0.8070   -0.4630    0.5610 C   0  0  0  0  0  0  0  0  0  0  0  0
   -0.2880    0.0750    2.6120 O   0  0  0  0  0  0  0  0  0  0  0  0
    3.9590   -2.2700    2.7540 C   0  0  0  0  0  0  0  0  0  0  0  0
    4.9400   -2.7920    2.2170 O   0  0  0  0  0  0  0  0  0  0  0  0
    1.9190   -1.0200   -1.1980 H   0  0  0  0  0  0  0  0  0  0  0  0
    3.7570   -2.0750    0.0740 H   0  0  0  0  0  0  0  0  0  0  0  0
    1.7610   -1.0930    3.7630 H   0  0  0  0  0  0  0  0  0  0  0  0
    0.0020   -0.0020   -0.0060 H   0  0  0  0  0  0  0  0  0  0  0  0
   -0.9230    0.4460    1.9780 H   0  0  0  0  0  0  0  0  0  0  0  0
    3.8800   -2.2630    3.8630 H   0  0  0  0  0  0  0  0  0  0  0  0
  1  6  2  0  0  0  0
  1  2  1  0  0  0  0
  1 10  1  0  0  0  0
  2  3  2  0  0  0  0
  2 11  1  0  0  0  0
  3  4  1  0  0  0  0
  3  8  1  0  0  0  0
  4  5  2  0  0  0  0
  4 12  1  0  0  0  0
  5  6  1  0  0  0  0
  5  7  1  0  0  0  0
  6 13  1  0  0  0  0
  7 14  1  0  0  0  0
  8  9  2  0  0  0  0
  8 15  1  0  0  0  0
M  END
>  <COMPND>
    mobley_7688753 

>  <AUTHOR>
    GENERATED BY OPEN BABEL 2.3.2

>  <MASTER>
        0    0    0    0    0    0    0    0   15    0   15    0

$$$$
