mobley_4759887.pdb
 OpenBabel09222014463D

 23 22  0  0  0  0  0  0  0  0999 V2000
    1.9980    1.0960    3.1530 C   0  0  0  0  0  0  0  0  0  0  0  0
    1.9580   -0.1520    2.2850 C   0  0  0  0  0  0  0  0  0  0  0  0
    0.9590   -0.0010    1.1380 C   0  0  0  0  0  0  0  0  0  0  0  0
    0.8790   -1.2330    0.2320 C   0  0  0  0  0  0  0  0  0  0  0  0
   -0.1060   -1.1410   -0.9370 C   0  0  0  0  0  0  0  0  0  0  0  0
   -0.1410   -2.4010   -1.8060 C   0  0  0  0  0  0  0  0  0  0  0  0
   -1.1410   -2.2480   -2.9530 C   0  0  0  0  0  0  0  0  0  0  0  0
   -1.1810   -4.0130   -4.1590 I   0  0  0  0  0  0  0  0  0  0  0  0
    2.7150    0.9820    3.9730 H   0  0  0  0  0  0  0  0  0  0  0  0
    1.0140    1.3050    3.5840 H   0  0  0  0  0  0  0  0  0  0  0  0
    2.3000    1.9630    2.5570 H   0  0  0  0  0  0  0  0  0  0  0  0
    2.9640   -0.3360    1.8920 H   0  0  0  0  0  0  0  0  0  0  0  0
    1.6860   -1.0130    2.9060 H   0  0  0  0  0  0  0  0  0  0  0  0
    1.2040    0.8870    0.5450 H   0  0  0  0  0  0  0  0  0  0  0  0
   -0.0410    0.1760    1.5550 H   0  0  0  0  0  0  0  0  0  0  0  0
    1.8780   -1.4390   -0.1740 H   0  0  0  0  0  0  0  0  0  0  0  0
    0.6150   -2.1000    0.8500 H   0  0  0  0  0  0  0  0  0  0  0  0
    0.1860   -0.2850   -1.5580 H   0  0  0  0  0  0  0  0  0  0  0  0
   -1.1130   -0.9190   -0.5630 H   0  0  0  0  0  0  0  0  0  0  0  0
    0.8610   -2.5950   -2.2070 H   0  0  0  0  0  0  0  0  0  0  0  0
   -0.4180   -3.2670   -1.1940 H   0  0  0  0  0  0  0  0  0  0  0  0
   -2.1440   -2.0590   -2.5540 H   0  0  0  0  0  0  0  0  0  0  0  0
   -0.8700   -1.3900   -3.5770 H   0  0  0  0  0  0  0  0  0  0  0  0
  1  2  1  0  0  0  0
  1  9  1  0  0  0  0
  1 10  1  0  0  0  0
  1 11  1  0  0  0  0
  2  3  1  0  0  0  0
  2 12  1  0  0  0  0
  2 13  1  0  0  0  0
  3  4  1  0  0  0  0
  3 14  1  0  0  0  0
  3 15  1  0  0  0  0
  4  5  1  0  0  0  0
  4 16  1  0  0  0  0
  4 17  1  0  0  0  0
  5  6  1  0  0  0  0
  5 18  1  0  0  0  0
  5 19  1  0  0  0  0
  6  7  1  0  0  0  0
  6 20  1  0  0  0  0
  6 21  1  0  0  0  0
  7  8  1  0  0  0  0
  7 22  1  0  0  0  0
  7 23  1  0  0  0  0
M  END
>  <COMPND>
    mobley_4759887 

>  <AUTHOR>
    GENERATED BY OPEN BABEL 2.3.2

>  <MASTER>
        0    0    0    0    0    0    0    0   23    0   23    0

$$$$
