mobley_6235784.pdb
 OpenBabel09222014463D

 14 13  0  0  1  0  0  0  0  0999 V2000
    1.6170    0.9240   -0.5790 C   0  0  0  0  0  0  0  0  0  0  0  0
    0.7290   -0.0110    0.2310 C   0  0  0  0  0  0  0  0  0  0  0  0
   -0.7340   -0.0130   -0.2250 C   0  0  2  0  0  0  0  0  0  0  0  0
   -1.1550    0.9940   -0.1320 H   0  0  0  0  0  0  0  0  0  0  0  0
   -1.5680   -0.9810    0.6060 C   0  0  0  0  0  0  0  0  0  0  0  0
   -0.8680   -0.4690   -1.9510 Cl  0  0  0  0  0  0  0  0  0  0  0  0
    2.6540    0.9040   -0.2300 H   0  0  0  0  0  0  0  0  0  0  0  0
    1.6030    0.6560   -1.6400 H   0  0  0  0  0  0  0  0  0  0  0  0
    1.2570    1.9540   -0.4860 H   0  0  0  0  0  0  0  0  0  0  0  0
    1.1430   -1.0260    0.1910 H   0  0  0  0  0  0  0  0  0  0  0  0
    0.7750    0.3040    1.2810 H   0  0  0  0  0  0  0  0  0  0  0  0
   -2.6110   -0.9750    0.2730 H   0  0  0  0  0  0  0  0  0  0  0  0
   -1.5530   -0.7140    1.6690 H   0  0  0  0  0  0  0  0  0  0  0  0
   -1.1950   -2.0060    0.5080 H   0  0  0  0  0  0  0  0  0  0  0  0
  1  2  1  0  0  0  0
  1  7  1  0  0  0  0
  1  8  1  0  0  0  0
  1  9  1  0  0  0  0
  2  3  1  0  0  0  0
  2 10  1  0  0  0  0
  2 11  1  0  0  0  0
  3  4  1  1  0  0  0
  3  5  1  0  0  0  0
  3  6  1  0  0  0  0
  5 12  1  0  0  0  0
  5 13  1  0  0  0  0
  5 14  1  0  0  0  0
M  END
>  <COMPND>
    mobley_6235784 

>  <AUTHOR>
    GENERATED BY OPEN BABEL 2.3.2

>  <MASTER>
        0    0    0    0    0    0    0    0   14    0   14    0

$$$$
