mobley_6266306.pdb
 OpenBabel09222014463D

 11 11  0  0  0  0  0  0  0  0999 V2000
    0.8690   -0.4840   -0.4590 C   0  0  0  0  0  0  0  0  0  0  0  0
    1.7750    0.4760   -1.2450 C   0  0  0  0  0  0  0  0  0  0  0  0
    1.0600    0.1020   -2.5170 N   0  0  0  0  0  0  0  0  0  0  0  0
    0.5740   -1.1400   -1.8170 C   0  0  0  0  0  0  0  0  0  0  0  0
   -0.0020    0.0030   -0.0050 H   0  0  0  0  0  0  0  0  0  0  0  0
    1.3630   -1.1140    0.2850 H   0  0  0  0  0  0  0  0  0  0  0  0
    1.6960    1.5330   -0.9750 H   0  0  0  0  0  0  0  0  0  0  0  0
    2.8320    0.1890   -1.2550 H   0  0  0  0  0  0  0  0  0  0  0  0
    1.7030   -0.1080   -3.2810 H   0  0  0  0  0  0  0  0  0  0  0  0
   -0.4750   -1.3870   -2.0070 H   0  0  0  0  0  0  0  0  0  0  0  0
    1.1910   -2.0180   -2.0340 H   0  0  0  0  0  0  0  0  0  0  0  0
  1  4  1  0  0  0  0
  1  2  1  0  0  0  0
  1  5  1  0  0  0  0
  1  6  1  0  0  0  0
  2  3  1  0  0  0  0
  2  7  1  0  0  0  0
  2  8  1  0  0  0  0
  3  4  1  0  0  0  0
  3  9  1  0  0  0  0
  4 10  1  0  0  0  0
  4 11  1  0  0  0  0
M  END
>  <COMPND>
    mobley_6266306 

>  <AUTHOR>
    GENERATED BY OPEN BABEL 2.3.2

>  <MASTER>
        0    0    0    0    0    0    0    0   11    0   11    0

$$$$
