mobley_3183805.pdb
 OpenBabel09222014463D

 21 21  0  0  0  0  0  0  0  0999 V2000
    1.9310   -1.0140   -1.6030 C   0  0  0  0  0  0  0  0  0  0  0  0
    1.8850   -1.0360   -0.1120 C   0  0  0  0  0  0  0  0  0  0  0  0
    2.9210   -1.6310    0.6080 C   0  0  0  0  0  0  0  0  0  0  0  0
    2.8780   -1.6520    2.0020 C   0  0  0  0  0  0  0  0  0  0  0  0
    1.8000   -1.0790    2.6760 C   0  0  0  0  0  0  0  0  0  0  0  0
    0.7640   -0.4840    1.9550 C   0  0  0  0  0  0  0  0  0  0  0  0
    0.8070   -0.4630    0.5610 C   0  0  0  0  0  0  0  0  0  0  0  0
   -0.4020    0.1340    2.6550 C   0  0  0  0  0  0  0  0  0  0  0  0
    1.7750   -1.1150    4.1690 C   0  0  0  0  0  0  0  0  0  0  0  0
    2.4390   -0.1080   -1.9480 H   0  0  0  0  0  0  0  0  0  0  0  0
    2.4640   -1.8890   -1.9910 H   0  0  0  0  0  0  0  0  0  0  0  0
    0.9210   -1.0370   -2.0250 H   0  0  0  0  0  0  0  0  0  0  0  0
    3.7650   -2.0800    0.0910 H   0  0  0  0  0  0  0  0  0  0  0  0
    3.6920   -2.1160    2.5540 H   0  0  0  0  0  0  0  0  0  0  0  0
   -0.0010    0.0000   -0.0010 H   0  0  0  0  0  0  0  0  0  0  0  0
   -0.2030    1.1920    2.8620 H   0  0  0  0  0  0  0  0  0  0  0  0
   -1.3120    0.0630    2.0470 H   0  0  0  0  0  0  0  0  0  0  0  0
   -0.6110   -0.3750    3.6030 H   0  0  0  0  0  0  0  0  0  0  0  0
    2.2660   -0.2250    4.5790 H   0  0  0  0  0  0  0  0  0  0  0  0
    0.7460   -1.1530    4.5470 H   0  0  0  0  0  0  0  0  0  0  0  0
    2.2890   -2.0060    4.5520 H   0  0  0  0  0  0  0  0  0  0  0  0
  1  2  1  0  0  0  0
  1 10  1  0  0  0  0
  1 11  1  0  0  0  0
  1 12  1  0  0  0  0
  2  7  2  0  0  0  0
  2  3  1  0  0  0  0
  3  4  2  0  0  0  0
  3 13  1  0  0  0  0
  4  5  1  0  0  0  0
  4 14  1  0  0  0  0
  5  6  2  0  0  0  0
  5  9  1  0  0  0  0
  6  7  1  0  0  0  0
  6  8  1  0  0  0  0
  7 15  1  0  0  0  0
  8 16  1  0  0  0  0
  8 17  1  0  0  0  0
  8 18  1  0  0  0  0
  9 19  1  0  0  0  0
  9 20  1  0  0  0  0
  9 21  1  0  0  0  0
M  END
>  <COMPND>
    mobley_3183805 

>  <AUTHOR>
    GENERATED BY OPEN BABEL 2.3.2

>  <MASTER>
        0    0    0    0    0    0    0    0   21    0   21    0

$$$$
