mobley_667278.pdb
 OpenBabel09222014463D

 22 23  0  0  0  0  0  0  0  0999 V2000
    1.8850   -1.0360   -0.1120 C   0  0  0  0  0  0  0  0  0  0  0  0
    2.9210   -1.6310    0.6080 C   0  0  0  0  0  0  0  0  0  0  0  0
    2.8780   -1.6520    2.0020 C   0  0  0  0  0  0  0  0  0  0  0  0
    1.8000   -1.0790    2.6760 C   0  0  0  0  0  0  0  0  0  0  0  0
    0.7640   -0.4840    1.9550 C   0  0  0  0  0  0  0  0  0  0  0  0
    0.8070   -0.4630    0.5610 C   0  0  0  0  0  0  0  0  0  0  0  0
   -0.2440    0.1420   -0.2380 C   0  0  0  0  0  0  0  0  0  0  0  0
   -0.1170    1.4930   -0.5610 C   0  0  0  0  0  0  0  0  0  0  0  0
   -1.0980    2.1220   -1.3270 C   0  0  0  0  0  0  0  0  0  0  0  0
   -2.2070    1.4000   -1.7700 C   0  0  0  0  0  0  0  0  0  0  0  0
   -2.3330    0.0490   -1.4470 C   0  0  0  0  0  0  0  0  0  0  0  0
   -1.3520   -0.5800   -0.6810 C   0  0  0  0  0  0  0  0  0  0  0  0
   -1.4920   -2.2650   -0.2630 Cl  0  0  0  0  0  0  0  0  0  0  0  0
   -3.7170   -0.8550   -1.9990 Cl  0  0  0  0  0  0  0  0  0  0  0  0
   -3.4230    2.1990   -2.7250 Cl  0  0  0  0  0  0  0  0  0  0  0  0
   -0.8690    3.7990   -1.6880 Cl  0  0  0  0  0  0  0  0  0  0  0  0
   -0.5910    0.2370    2.7780 Cl  0  0  0  0  0  0  0  0  0  0  0  0
    1.7570   -1.1110    4.4150 Cl  0  0  0  0  0  0  0  0  0  0  0  0
    4.2000   -2.4080    2.8250 Cl  0  0  0  0  0  0  0  0  0  0  0  0
    1.9360   -1.0290   -1.1990 H   0  0  0  0  0  0  0  0  0  0  0  0
    3.7540   -2.0730    0.0660 H   0  0  0  0  0  0  0  0  0  0  0  0
    0.7490    2.0560   -0.2170 H   0  0  0  0  0  0  0  0  0  0  0  0
  1  6  2  0  0  0  0
  1  2  1  0  0  0  0
  1 20  1  0  0  0  0
  2  3  2  0  0  0  0
  2 21  1  0  0  0  0
  3  4  1  0  0  0  0
  3 19  1  0  0  0  0
  4  5  2  0  0  0  0
  4 18  1  0  0  0  0
  5  6  1  0  0  0  0
  5 17  1  0  0  0  0
  6  7  1  0  0  0  0
  7 12  2  0  0  0  0
  7  8  1  0  0  0  0
  8  9  2  0  0  0  0
  8 22  1  0  0  0  0
  9 10  1  0  0  0  0
  9 16  1  0  0  0  0
 10 11  2  0  0  0  0
 10 15  1  0  0  0  0
 11 12  1  0  0  0  0
 11 14  1  0  0  0  0
 12 13  1  0  0  0  0
M  END
>  <COMPND>
    mobley_667278 

>  <AUTHOR>
    GENERATED BY OPEN BABEL 2.3.2

>  <MASTER>
        0    0    0    0    0    0    0    0   22    0   22    0

$$$$
