mobley_7200804.pdb
 OpenBabel09222014463D

 13 13  0  0  0  0  0  0  0  0999 V2000
    1.8850   -1.0360   -0.1120 C   0  0  0  0  0  0  0  0  0  0  0  0
    2.9210   -1.6310    0.6080 C   0  0  0  0  0  0  0  0  0  0  0  0
    2.8780   -1.6520    2.0020 C   0  0  0  0  0  0  0  0  0  0  0  0
    1.8000   -1.0790    2.6760 C   0  0  0  0  0  0  0  0  0  0  0  0
    0.7640   -0.4840    1.9550 C   0  0  0  0  0  0  0  0  0  0  0  0
    0.8070   -0.4630    0.5610 C   0  0  0  0  0  0  0  0  0  0  0  0
   -0.2890    0.0760    2.6110 O   0  0  0  0  0  0  0  0  0  0  0  0
    1.7640   -1.1020    4.0150 F   0  0  0  0  0  0  0  0  0  0  0  0
    1.9180   -1.0200   -1.1980 H   0  0  0  0  0  0  0  0  0  0  0  0
    3.7610   -2.0770    0.0840 H   0  0  0  0  0  0  0  0  0  0  0  0
    3.6850   -2.1140    2.5630 H   0  0  0  0  0  0  0  0  0  0  0  0
    0.0030   -0.0020   -0.0060 H   0  0  0  0  0  0  0  0  0  0  0  0
   -0.1760   -0.0180    3.5700 H   0  0  0  0  0  0  0  0  0  0  0  0
  1  6  2  0  0  0  0
  1  2  1  0  0  0  0
  1  9  1  0  0  0  0
  2  3  2  0  0  0  0
  2 10  1  0  0  0  0
  3  4  1  0  0  0  0
  3 11  1  0  0  0  0
  4  5  2  0  0  0  0
  4  8  1  0  0  0  0
  5  6  1  0  0  0  0
  5  7  1  0  0  0  0
  6 12  1  0  0  0  0
  7 13  1  0  0  0  0
M  END
>  <COMPND>
    mobley_7200804 

>  <AUTHOR>
    GENERATED BY OPEN BABEL 2.3.2

>  <MASTER>
        0    0    0    0    0    0    0    0   13    0   13    0

$$$$
