mobley_7099614.pdb
 OpenBabel09222014463D

  9  8  0  0  0  0  0  0  0  0999 V2000
   -0.5600    1.0890    0.7290 C   0  0  0  0  0  0  0  0  0  0  0  0
   -0.1760   -0.1720    0.4990 C   0  0  0  0  0  0  0  0  0  0  0  0
    0.5940   -0.6000   -0.7060 C   0  0  0  0  0  0  0  0  0  0  0  0
   -0.3330   -1.8100   -1.6180 Cl  0  0  0  0  0  0  0  0  0  0  0  0
   -1.1100    1.3400    1.6290 H   0  0  0  0  0  0  0  0  0  0  0  0
   -0.3350    1.8870    0.0300 H   0  0  0  0  0  0  0  0  0  0  0  0
   -0.4210   -0.9310    1.2370 H   0  0  0  0  0  0  0  0  0  0  0  0
    1.5420   -1.0550   -0.4060 H   0  0  0  0  0  0  0  0  0  0  0  0
    0.8090    0.2340   -1.3810 H   0  0  0  0  0  0  0  0  0  0  0  0
  1  2  2  0  0  0  0
  1  5  1  0  0  0  0
  1  6  1  0  0  0  0
  2  3  1  0  0  0  0
  2  7  1  0  0  0  0
  3  4  1  0  0  0  0
  3  8  1  0  0  0  0
  3  9  1  0  0  0  0
M  END
>  <COMPND>
    mobley_7099614 

>  <AUTHOR>
    GENERATED BY OPEN BABEL 2.3.2

>  <MASTER>
        0    0    0    0    0    0    0    0    9    0    9    0

$$$$
