mobley_4188615.pdb
 OpenBabel09222014463D

 22 22  0  0  0  0  0  0  0  0999 V2000
    0.9450   -0.0480   -0.2110 C   0  0  0  0  0  0  0  0  0  0  0  0
    1.3870    0.6310   -1.4210 N   0  0  0  0  0  0  0  0  0  0  0  0
    0.7920    0.1550   -2.6670 C   0  0  0  0  0  0  0  0  0  0  0  0
    2.3230    1.6660   -1.3230 C   0  0  0  0  0  0  0  0  0  0  0  0
    2.8290    2.0740   -0.2780 O   0  0  0  0  0  0  0  0  0  0  0  0
    2.7670    2.3260   -2.5620 C   0  0  0  0  0  0  0  0  0  0  0  0
    3.8750    1.8370   -3.2530 C   0  0  0  0  0  0  0  0  0  0  0  0
    4.2960    2.4630   -4.4270 C   0  0  0  0  0  0  0  0  0  0  0  0
    3.6090    3.5780   -4.9080 C   0  0  0  0  0  0  0  0  0  0  0  0
    2.5010    4.0660   -4.2160 C   0  0  0  0  0  0  0  0  0  0  0  0
    2.0800    3.4400   -3.0430 C   0  0  0  0  0  0  0  0  0  0  0  0
    1.5930   -0.9040   -0.0030 H   0  0  0  0  0  0  0  0  0  0  0  0
   -0.0810   -0.4050   -0.3320 H   0  0  0  0  0  0  0  0  0  0  0  0
    0.9810    0.6360    0.6410 H   0  0  0  0  0  0  0  0  0  0  0  0
   -0.1130    0.7210   -2.8640 H   0  0  0  0  0  0  0  0  0  0  0  0
    0.5550   -0.8990   -2.5670 H   0  0  0  0  0  0  0  0  0  0  0  0
    1.5020    0.2990   -3.4760 H   0  0  0  0  0  0  0  0  0  0  0  0
    4.4180    0.9700   -2.8870 H   0  0  0  0  0  0  0  0  0  0  0  0
    5.1590    2.0830   -4.9660 H   0  0  0  0  0  0  0  0  0  0  0  0
    3.9370    4.0650   -5.8220 H   0  0  0  0  0  0  0  0  0  0  0  0
    1.9670    4.9340   -4.5910 H   0  0  0  0  0  0  0  0  0  0  0  0
    1.2140    3.8290   -2.5130 H   0  0  0  0  0  0  0  0  0  0  0  0
  1  2  1  0  0  0  0
  1 12  1  0  0  0  0
  1 13  1  0  0  0  0
  1 14  1  0  0  0  0
  2  3  1  0  0  0  0
  2  4  1  0  0  0  0
  3 15  1  0  0  0  0
  3 16  1  0  0  0  0
  3 17  1  0  0  0  0
  4  5  2  0  0  0  0
  4  6  1  0  0  0  0
  6 11  2  0  0  0  0
  6  7  1  0  0  0  0
  7  8  2  0  0  0  0
  7 18  1  0  0  0  0
  8  9  1  0  0  0  0
  8 19  1  0  0  0  0
  9 10  2  0  0  0  0
  9 20  1  0  0  0  0
 10 11  1  0  0  0  0
 10 21  1  0  0  0  0
 11 22  1  0  0  0  0
M  END
>  <COMPND>
    mobley_4188615 

>  <AUTHOR>
    GENERATED BY OPEN BABEL 2.3.2

>  <MASTER>
        0    0    0    0    0    0    0    0   22    0   22    0

$$$$
