mobley_967099.pdb
 OpenBabel09222014463D

 13 12  0  0  0  0  0  0  0  0999 V2000
   -0.5140   -0.3860    0.8880 C   0  0  0  0  0  0  0  0  0  0  0  0
    0.4300   -0.4780    2.0740 C   0  0  0  0  0  0  0  0  0  0  0  0
    1.0240    0.8720    2.4400 C   0  0  0  0  0  0  0  0  0  0  0  0
    1.5280   -1.3830    1.7190 N   0  0  0  0  0  0  0  0  0  0  0  0
    2.2410   -1.0850    0.7410 O   0  5  0  0  0  0  0  0  0  0  0  0
    1.6760   -2.4120    2.4070 O   0  5  0  0  0  0  0  0  0  0  0  0
   -0.9300   -1.3670    0.6410 H   0  0  0  0  0  0  0  0  0  0  0  0
   -1.3450    0.2980    1.0930 H   0  0  0  0  0  0  0  0  0  0  0  0
    0.0130   -0.0060    0.0050 H   0  0  0  0  0  0  0  0  0  0  0  0
   -0.0920   -0.9030    2.9370 H   0  0  0  0  0  0  0  0  0  0  0  0
    1.6990    0.7760    3.2960 H   0  0  0  0  0  0  0  0  0  0  0  0
    0.2380    1.5880    2.7020 H   0  0  0  0  0  0  0  0  0  0  0  0
    1.6050    1.2890    1.6100 H   0  0  0  0  0  0  0  0  0  0  0  0
  1  2  1  0  0  0  0
  1  7  1  0  0  0  0
  1  8  1  0  0  0  0
  1  9  1  0  0  0  0
  2  3  1  0  0  0  0
  2  4  1  0  0  0  0
  2 10  1  0  0  0  0
  3 11  1  0  0  0  0
  3 12  1  0  0  0  0
  3 13  1  0  0  0  0
  4  5  2  0  0  0  0
  4  6  2  0  0  0  0
M  CHG  2   5  -1   6  -1
M  END
>  <COMPND>
    mobley_967099 

>  <AUTHOR>
    GENERATED BY OPEN BABEL 2.3.2

>  <MASTER>
        0    0    0    0    0    0    0    0   13    0   13    0

$$$$
