mobley_664966.pdb
 OpenBabel09222014463D

  5  4  0  0  0  0  0  0  0  0999 V2000
   -0.0890    0.2170    0.0770 C   0  0  0  0  0  0  0  0  0  0  0  0
   -1.2170   -1.4270   -0.6450 I   0  0  0  0  0  0  0  0  0  0  0  0
    1.9500   -0.3610    0.0080 I   0  0  0  0  0  0  0  0  0  0  0  0
   -0.3840    0.4670    1.1010 H   0  0  0  0  0  0  0  0  0  0  0  0
   -0.2600    1.1030   -0.5410 H   0  0  0  0  0  0  0  0  0  0  0  0
  1  2  1  0  0  0  0
  1  3  1  0  0  0  0
  1  4  1  0  0  0  0
  1  5  1  0  0  0  0
M  END
>  <COMPND>
    mobley_664966 

>  <AUTHOR>
    GENERATED BY OPEN BABEL 2.3.2

>  <MASTER>
        0    0    0    0    0    0    0    0    5    0    5    0

$$$$
