mobley_1036761.pdb
 OpenBabel09222014463D

 20 20  0  0  0  0  0  0  0  0999 V2000
    0.5640    0.5440   -0.7660 C   0  0  0  0  0  0  0  0  0  0  0  0
    0.3510   -0.1160   -2.1260 C   0  0  0  0  0  0  0  0  0  0  0  0
    1.0410    0.6630   -3.2440 C   0  0  0  0  0  0  0  0  0  0  0  0
    0.5980    2.1300   -3.2590 C   0  0  0  0  0  0  0  0  0  0  0  0
    0.8240    2.7890   -1.8940 C   0  0  0  0  0  0  0  0  0  0  0  0
    0.1340    2.0080   -0.7770 C   0  0  0  0  0  0  0  0  0  0  0  0
    1.3310    2.8600   -4.2910 N   0  0  0  0  0  0  0  0  0  0  0  0
    1.6230    0.4770   -0.4910 H   0  0  0  0  0  0  0  0  0  0  0  0
    0.0000    0.0000    0.0000 H   0  0  0  0  0  0  0  0  0  0  0  0
    0.7340   -1.1420   -2.1010 H   0  0  0  0  0  0  0  0  0  0  0  0
   -0.7240   -0.1810   -2.3360 H   0  0  0  0  0  0  0  0  0  0  0  0
    2.1280    0.5960   -3.1070 H   0  0  0  0  0  0  0  0  0  0  0  0
    0.8130    0.1890   -4.2070 H   0  0  0  0  0  0  0  0  0  0  0  0
   -0.4670    2.1770   -3.5040 H   0  0  0  0  0  0  0  0  0  0  0  0
    1.8990    2.8500   -1.6760 H   0  0  0  0  0  0  0  0  0  0  0  0
    0.4430    3.8180   -1.9020 H   0  0  0  0  0  0  0  0  0  0  0  0
    0.3650    2.4670    0.1900 H   0  0  0  0  0  0  0  0  0  0  0  0
   -0.9540    2.0690   -0.9090 H   0  0  0  0  0  0  0  0  0  0  0  0
    0.9920    2.8130   -5.2260 H   0  0  0  0  0  0  0  0  0  0  0  0
    2.2390    3.2010   -4.0660 H   0  0  0  0  0  0  0  0  0  0  0  0
  1  6  1  0  0  0  0
  1  2  1  0  0  0  0
  1  8  1  0  0  0  0
  1  9  1  0  0  0  0
  2  3  1  0  0  0  0
  2 10  1  0  0  0  0
  2 11  1  0  0  0  0
  3  4  1  0  0  0  0
  3 12  1  0  0  0  0
  3 13  1  0  0  0  0
  4  5  1  0  0  0  0
  4  7  1  0  0  0  0
  4 14  1  0  0  0  0
  5  6  1  0  0  0  0
  5 15  1  0  0  0  0
  5 16  1  0  0  0  0
  6 17  1  0  0  0  0
  6 18  1  0  0  0  0
  7 19  1  0  0  0  0
  7 20  1  0  0  0  0
M  END
>  <COMPND>
    mobley_1036761 

>  <AUTHOR>
    GENERATED BY OPEN BABEL 2.3.2

>  <MASTER>
        0    0    0    0    0    0    0    0   20    0   20    0

$$$$
