mobley_7676709.pdb
 OpenBabel09222014463D

 27 27  0  0  1  0  0  0  0  0999 V2000
   -1.9960    1.5360   -1.7700 C   0  0  0  0  0  0  0  0  0  0  0  0
   -1.0220    0.7270   -0.9620 C   0  0  0  0  0  0  0  0  0  0  0  0
   -0.7020    1.0740    0.2940 C   0  0  0  0  0  0  0  0  0  0  0  0
    0.2130    0.2320    1.1070 C   0  0  0  0  0  0  0  0  0  0  0  0
    0.5330    0.6120    2.2330 O   0  0  0  0  0  0  0  0  0  0  0  0
    0.6490   -1.1110    0.5340 C   0  0  1  0  0  0  0  0  0  0  0  0
   -0.1500   -1.8300    0.7550 H   0  0  0  0  0  0  0  0  0  0  0  0
    0.8310   -0.9910   -0.9780 C   0  0  0  0  0  0  0  0  0  0  0  0
   -0.4420   -0.4810   -1.6510 C   0  0  0  0  0  0  0  0  0  0  0  0
    1.9370   -1.5980    1.1920 C   0  0  0  0  0  0  0  0  0  0  0  0
    2.1030   -3.1040    1.0000 C   0  0  0  0  0  0  0  0  0  0  0  0
    3.1440   -0.8500    0.6290 C   0  0  0  0  0  0  0  0  0  0  0  0
   -3.0130    1.1660   -1.6180 H   0  0  0  0  0  0  0  0  0  0  0  0
   -1.7520    1.4700   -2.8340 H   0  0  0  0  0  0  0  0  0  0  0  0
   -1.9550    2.5870   -1.4720 H   0  0  0  0  0  0  0  0  0  0  0  0
   -1.1150    1.9570    0.7700 H   0  0  0  0  0  0  0  0  0  0  0  0
    1.6550   -0.2990   -1.2010 H   0  0  0  0  0  0  0  0  0  0  0  0
    1.1040   -1.9610   -1.4090 H   0  0  0  0  0  0  0  0  0  0  0  0
   -0.2050   -0.2370   -2.6930 H   0  0  0  0  0  0  0  0  0  0  0  0
   -1.1990   -1.2750   -1.6690 H   0  0  0  0  0  0  0  0  0  0  0  0
    1.8760   -1.3930    2.2680 H   0  0  0  0  0  0  0  0  0  0  0  0
    3.0250   -3.4670    1.4670 H   0  0  0  0  0  0  0  0  0  0  0  0
    2.1410   -3.3580   -0.0650 H   0  0  0  0  0  0  0  0  0  0  0  0
    1.2620   -3.6480    1.4430 H   0  0  0  0  0  0  0  0  0  0  0  0
    4.0760   -1.1910    1.0940 H   0  0  0  0  0  0  0  0  0  0  0  0
    3.0520    0.2270    0.8060 H   0  0  0  0  0  0  0  0  0  0  0  0
    3.2280   -1.0050   -0.4520 H   0  0  0  0  0  0  0  0  0  0  0  0
  1  2  1  0  0  0  0
  1 13  1  0  0  0  0
  1 14  1  0  0  0  0
  1 15  1  0  0  0  0
  2  9  1  0  0  0  0
  2  3  2  0  0  0  0
  3  4  1  0  0  0  0
  3 16  1  0  0  0  0
  4  5  2  0  0  0  0
  4  6  1  0  0  0  0
  6  7  1  1  0  0  0
  6  8  1  0  0  0  0
  6 10  1  0  0  0  0
  8  9  1  0  0  0  0
  8 17  1  0  0  0  0
  8 18  1  0  0  0  0
  9 19  1  0  0  0  0
  9 20  1  0  0  0  0
 10 11  1  0  0  0  0
 10 12  1  0  0  0  0
 10 21  1  0  0  0  0
 11 22  1  0  0  0  0
 11 23  1  0  0  0  0
 11 24  1  0  0  0  0
 12 25  1  0  0  0  0
 12 26  1  0  0  0  0
 12 27  1  0  0  0  0
M  END
>  <COMPND>
    mobley_7676709 

>  <AUTHOR>
    GENERATED BY OPEN BABEL 2.3.2

>  <MASTER>
        0    0    0    0    0    0    0    0   27    0   27    0

$$$$
