mobley_5056289.pdb
 OpenBabel09222014463D

 16 16  0  0  1  0  0  0  0  0999 V2000
    0.5050   -4.0080    1.1890 C   0  0  0  0  0  0  0  0  0  0  0  0
    0.2540   -2.6640    0.5330 C   0  0  1  0  0  0  0  0  0  0  0  0
   -0.8070   -2.5720    0.2730 H   0  0  0  0  0  0  0  0  0  0  0  0
    0.6910   -1.4840    1.3850 C   0  0  0  0  0  0  0  0  0  0  0  0
    0.9500   -0.4350    0.3330 C   0  0  0  0  0  0  0  0  0  0  0  0
    1.5630   -1.2540   -0.7830 C   0  0  0  0  0  0  0  0  0  0  0  0
    1.0010   -2.5720   -0.6920 O   0  0  0  0  0  0  0  0  0  0  0  0
    1.5610   -4.1160    1.4540 H   0  0  0  0  0  0  0  0  0  0  0  0
   -0.0920   -4.1090    2.1000 H   0  0  0  0  0  0  0  0  0  0  0  0
    0.2360   -4.8230    0.5090 H   0  0  0  0  0  0  0  0  0  0  0  0
   -0.0630   -1.1880    2.1190 H   0  0  0  0  0  0  0  0  0  0  0  0
    1.6220   -1.7070    1.9190 H   0  0  0  0  0  0  0  0  0  0  0  0
    0.0000    0.0000    0.0000 H   0  0  0  0  0  0  0  0  0  0  0  0
    1.5980    0.3770    0.6720 H   0  0  0  0  0  0  0  0  0  0  0  0
    1.3600   -0.8340   -1.7720 H   0  0  0  0  0  0  0  0  0  0  0  0
    2.6470   -1.3460   -0.6570 H   0  0  0  0  0  0  0  0  0  0  0  0
  1  2  1  0  0  0  0
  1  8  1  0  0  0  0
  1  9  1  0  0  0  0
  1 10  1  0  0  0  0
  2  3  1  6  0  0  0
  2  7  1  0  0  0  0
  2  4  1  0  0  0  0
  4  5  1  0  0  0  0
  4 11  1  0  0  0  0
  4 12  1  0  0  0  0
  5  6  1  0  0  0  0
  5 13  1  0  0  0  0
  5 14  1  0  0  0  0
  6  7  1  0  0  0  0
  6 15  1  0  0  0  0
  6 16  1  0  0  0  0
M  END
>  <COMPND>
    mobley_5056289 

>  <AUTHOR>
    GENERATED BY OPEN BABEL 2.3.2

>  <MASTER>
        0    0    0    0    0    0    0    0   16    0   16    0

$$$$
