mobley_6232400.pdb
 OpenBabel09222014463D

 13 13  0  0  0  0  0  0  0  0999 V2000
    1.6520   -0.6230    2.9000 C   0  0  0  0  0  0  0  0  0  0  0  0
    1.3880   -0.0680    1.6520 C   0  0  0  0  0  0  0  0  0  0  0  0
    0.2270   -0.4200    0.9730 C   0  0  0  0  0  0  0  0  0  0  0  0
   -0.6320   -1.3220    1.5800 C   0  0  0  0  0  0  0  0  0  0  0  0
   -0.4090   -1.8820    2.7910 N   0  0  0  0  0  0  0  0  0  0  0  0
    0.7300   -1.5160    3.4210 C   0  0  0  0  0  0  0  0  0  0  0  0
   -0.0770    0.1410   -0.3320 C   0  0  0  0  0  0  0  0  0  0  0  0
    0.6600    0.9470   -0.9090 O   0  0  0  0  0  0  0  0  0  0  0  0
    2.5500   -0.3620    3.4480 H   0  0  0  0  0  0  0  0  0  0  0  0
    2.0920    0.6370    1.2190 H   0  0  0  0  0  0  0  0  0  0  0  0
   -1.5540   -1.6340    1.0990 H   0  0  0  0  0  0  0  0  0  0  0  0
    0.8880   -1.9750    4.3910 H   0  0  0  0  0  0  0  0  0  0  0  0
   -1.0230   -0.1810   -0.8220 H   0  0  0  0  0  0  0  0  0  0  0  0
  1  6  2  0  0  0  0
  1  2  1  0  0  0  0
  1  9  1  0  0  0  0
  2  3  2  0  0  0  0
  2 10  1  0  0  0  0
  3  4  1  0  0  0  0
  3  7  1  0  0  0  0
  4  5  2  0  0  0  0
  4 11  1  0  0  0  0
  5  6  1  0  0  0  0
  6 12  1  0  0  0  0
  7  8  2  0  0  0  0
  7 13  1  0  0  0  0
M  END
>  <COMPND>
    mobley_6232400 

>  <AUTHOR>
    GENERATED BY OPEN BABEL 2.3.2

>  <MASTER>
        0    0    0    0    0    0    0    0   13    0   13    0

$$$$
