mobley_3982371.pdb
 OpenBabel09222014463D

 11 10  0  0  0  0  0  0  0  0999 V2000
   -0.9370   -0.5550    0.0880 C   0  0  0  0  0  0  0  0  0  0  0  0
   -1.6380   -0.5840   -1.2370 C   0  0  0  0  0  0  0  0  0  0  0  0
   -1.9040   -1.6090   -1.8490 O   0  0  0  0  0  0  0  0  0  0  0  0
   -1.9190    0.6900   -1.6320 O   0  0  0  0  0  0  0  0  0  0  0  0
   -2.5910    0.8100   -2.8890 C   0  0  0  0  0  0  0  0  0  0  0  0
    0.1430   -0.4960   -0.0650 H   0  0  0  0  0  0  0  0  0  0  0  0
   -1.1970   -1.4470    0.6640 H   0  0  0  0  0  0  0  0  0  0  0  0
   -1.2580    0.3270    0.6490 H   0  0  0  0  0  0  0  0  0  0  0  0
   -2.7600    1.8650   -3.0960 H   0  0  0  0  0  0  0  0  0  0  0  0
   -3.5340    0.2710   -2.8340 H   0  0  0  0  0  0  0  0  0  0  0  0
   -1.9560    0.3760   -3.6580 H   0  0  0  0  0  0  0  0  0  0  0  0
  1  2  1  0  0  0  0
  1  6  1  0  0  0  0
  1  7  1  0  0  0  0
  1  8  1  0  0  0  0
  2  3  2  0  0  0  0
  2  4  1  0  0  0  0
  4  5  1  0  0  0  0
  5  9  1  0  0  0  0
  5 10  1  0  0  0  0
  5 11  1  0  0  0  0
M  END
>  <COMPND>
    mobley_3982371 

>  <AUTHOR>
    GENERATED BY OPEN BABEL 2.3.2

>  <MASTER>
        0    0    0    0    0    0    0    0   11    0   11    0

$$$$
