mobley_1396156.pdb
 OpenBabel09222014463D

 14 14  0  0  0  0  0  0  0  0999 V2000
    1.8850   -1.0360   -0.1120 C   0  0  0  0  0  0  0  0  0  0  0  0
    2.9210   -1.6310    0.6080 C   0  0  0  0  0  0  0  0  0  0  0  0
    2.8780   -1.6520    2.0020 C   0  0  0  0  0  0  0  0  0  0  0  0
    1.8000   -1.0790    2.6760 C   0  0  0  0  0  0  0  0  0  0  0  0
    0.7640   -0.4840    1.9550 C   0  0  0  0  0  0  0  0  0  0  0  0
    0.8070   -0.4630    0.5610 C   0  0  0  0  0  0  0  0  0  0  0  0
   -0.4790    0.2740   -0.3570 Cl  0  0  0  0  0  0  0  0  0  0  0  0
   -0.5850    0.2340    2.7930 Cl  0  0  0  0  0  0  0  0  0  0  0  0
    1.7470   -1.1050    4.4180 Cl  0  0  0  0  0  0  0  0  0  0  0  0
    4.1750   -2.3960    2.8980 Cl  0  0  0  0  0  0  0  0  0  0  0  0
    4.2590   -2.3420   -0.2520 Cl  0  0  0  0  0  0  0  0  0  0  0  0
    1.9280   -1.0150   -1.5410 N   0  0  0  0  0  0  0  0  0  0  0  0
    0.9850   -0.4760   -2.1600 O   0  5  0  0  0  0  0  0  0  0  0  0
    2.9070   -1.5360   -2.1180 O   0  5  0  0  0  0  0  0  0  0  0  0
  1  6  2  0  0  0  0
  1  2  1  0  0  0  0
  1 12  1  0  0  0  0
  2  3  2  0  0  0  0
  2 11  1  0  0  0  0
  3  4  1  0  0  0  0
  3 10  1  0  0  0  0
  4  5  2  0  0  0  0
  4  9  1  0  0  0  0
  5  6  1  0  0  0  0
  5  8  1  0  0  0  0
  6  7  1  0  0  0  0
 12 13  2  0  0  0  0
 12 14  2  0  0  0  0
M  CHG  2  13  -1  14  -1
M  END
>  <COMPND>
    mobley_1396156 

>  <AUTHOR>
    GENERATED BY OPEN BABEL 2.3.2

>  <MASTER>
        0    0    0    0    0    0    0    0   14    0   14    0

$$$$
