mobley_3746675.pdb
 OpenBabel09222014463D

 19 19  0  0  0  0  0  0  0  0999 V2000
    1.9300    0.2620   -2.3740 C   0  0  0  0  0  0  0  0  0  0  0  0
    1.9300   -1.0140   -1.5660 C   0  0  0  0  0  0  0  0  0  0  0  0
    1.9830   -2.1960   -2.2090 C   0  0  0  0  0  0  0  0  0  0  0  0
    1.8850   -1.0360   -0.1120 C   0  0  0  0  0  0  0  0  0  0  0  0
    2.9210   -1.6310    0.6080 C   0  0  0  0  0  0  0  0  0  0  0  0
    2.8780   -1.6520    2.0020 C   0  0  0  0  0  0  0  0  0  0  0  0
    1.8000   -1.0790    2.6760 C   0  0  0  0  0  0  0  0  0  0  0  0
    0.7640   -0.4840    1.9550 C   0  0  0  0  0  0  0  0  0  0  0  0
    0.8070   -0.4630    0.5610 C   0  0  0  0  0  0  0  0  0  0  0  0
    0.9020    0.5550   -2.6140 H   0  0  0  0  0  0  0  0  0  0  0  0
    2.3980    1.0750   -1.8090 H   0  0  0  0  0  0  0  0  0  0  0  0
    2.4730    0.1580   -3.3190 H   0  0  0  0  0  0  0  0  0  0  0  0
    2.0000   -3.1470   -1.6840 H   0  0  0  0  0  0  0  0  0  0  0  0
    2.0220   -2.2450   -3.2930 H   0  0  0  0  0  0  0  0  0  0  0  0
    3.7680   -2.0820    0.0980 H   0  0  0  0  0  0  0  0  0  0  0  0
    3.6850   -2.1150    2.5630 H   0  0  0  0  0  0  0  0  0  0  0  0
    1.7660   -1.0950    3.7610 H   0  0  0  0  0  0  0  0  0  0  0  0
   -0.0760   -0.0380    2.4800 H   0  0  0  0  0  0  0  0  0  0  0  0
   -0.0090    0.0040    0.0130 H   0  0  0  0  0  0  0  0  0  0  0  0
  1  2  1  0  0  0  0
  1 10  1  0  0  0  0
  1 11  1  0  0  0  0
  1 12  1  0  0  0  0
  2  3  2  0  0  0  0
  2  4  1  0  0  0  0
  3 13  1  0  0  0  0
  3 14  1  0  0  0  0
  4  9  2  0  0  0  0
  4  5  1  0  0  0  0
  5  6  2  0  0  0  0
  5 15  1  0  0  0  0
  6  7  1  0  0  0  0
  6 16  1  0  0  0  0
  7  8  2  0  0  0  0
  7 17  1  0  0  0  0
  8  9  1  0  0  0  0
  8 18  1  0  0  0  0
  9 19  1  0  0  0  0
M  END
>  <COMPND>
    mobley_3746675 

>  <AUTHOR>
    GENERATED BY OPEN BABEL 2.3.2

>  <MASTER>
        0    0    0    0    0    0    0    0   19    0   19    0

$$$$
