mobley_4762983.pdb
 OpenBabel09222014463D

 21 20  0  0  0  0  0  0  0  0999 V2000
   -5.9540    0.4470   -2.6220 C   0  0  0  0  0  0  0  0  0  0  0  0
   -5.7470   -0.4650   -1.4230 C   0  0  0  0  0  0  0  0  0  0  0  0
   -4.5290   -0.0420   -0.6000 C   0  0  0  0  0  0  0  0  0  0  0  0
   -4.3270   -0.9640    0.6060 C   0  0  0  0  0  0  0  0  0  0  0  0
   -3.1160   -0.5780    1.4610 C   0  0  0  0  0  0  0  0  0  0  0  0
   -2.9180   -1.4820    2.6420 C   0  0  0  0  0  0  0  0  0  0  0  0
   -1.8160   -2.2110    2.8490 C   0  0  0  0  0  0  0  0  0  0  0  0
   -6.8270    0.1370   -3.2040 H   0  0  0  0  0  0  0  0  0  0  0  0
   -5.0790    0.4340   -3.2790 H   0  0  0  0  0  0  0  0  0  0  0  0
   -6.1150    1.4780   -2.2900 H   0  0  0  0  0  0  0  0  0  0  0  0
   -5.6190   -1.4960   -1.7730 H   0  0  0  0  0  0  0  0  0  0  0  0
   -6.6460   -0.4440   -0.7960 H   0  0  0  0  0  0  0  0  0  0  0  0
   -3.6390   -0.0570   -1.2400 H   0  0  0  0  0  0  0  0  0  0  0  0
   -4.6620    0.9910   -0.2540 H   0  0  0  0  0  0  0  0  0  0  0  0
   -5.2220   -0.9270    1.2400 H   0  0  0  0  0  0  0  0  0  0  0  0
   -4.2260   -2.0020    0.2640 H   0  0  0  0  0  0  0  0  0  0  0  0
   -3.2650    0.4410    1.8380 H   0  0  0  0  0  0  0  0  0  0  0  0
   -2.2170   -0.5490    0.8330 H   0  0  0  0  0  0  0  0  0  0  0  0
   -3.7220   -1.5320    3.3720 H   0  0  0  0  0  0  0  0  0  0  0  0
   -1.7160   -2.8530    3.7180 H   0  0  0  0  0  0  0  0  0  0  0  0
   -0.9920   -2.1730    2.1460 H   0  0  0  0  0  0  0  0  0  0  0  0
  1  2  1  0  0  0  0
  1  8  1  0  0  0  0
  1  9  1  0  0  0  0
  1 10  1  0  0  0  0
  2  3  1  0  0  0  0
  2 11  1  0  0  0  0
  2 12  1  0  0  0  0
  3  4  1  0  0  0  0
  3 13  1  0  0  0  0
  3 14  1  0  0  0  0
  4  5  1  0  0  0  0
  4 15  1  0  0  0  0
  4 16  1  0  0  0  0
  5  6  1  0  0  0  0
  5 17  1  0  0  0  0
  5 18  1  0  0  0  0
  6  7  2  0  0  0  0
  6 19  1  0  0  0  0
  7 20  1  0  0  0  0
  7 21  1  0  0  0  0
M  END
>  <COMPND>
    mobley_4762983 

>  <AUTHOR>
    GENERATED BY OPEN BABEL 2.3.2

>  <MASTER>
        0    0    0    0    0    0    0    0   21    0   21    0

$$$$
