mobley_7988076.pdb
 OpenBabel09222014463D

 15 15  0  0  0  0  0  0  0  0999 V2000
    1.8850   -1.0360   -0.1120 C   0  0  0  0  0  0  0  0  0  0  0  0
    2.9210   -1.6310    0.6080 C   0  0  0  0  0  0  0  0  0  0  0  0
    2.8780   -1.6520    2.0020 C   0  0  0  0  0  0  0  0  0  0  0  0
    1.8000   -1.0790    2.6760 C   0  0  0  0  0  0  0  0  0  0  0  0
    0.7640   -0.4840    1.9550 C   0  0  0  0  0  0  0  0  0  0  0  0
    0.8070   -0.4630    0.5610 C   0  0  0  0  0  0  0  0  0  0  0  0
   -0.2730    0.1570   -0.1900 C   0  0  0  0  0  0  0  0  0  0  0  0
   -1.2540    0.6800    0.3460 O   0  0  0  0  0  0  0  0  0  0  0  0
    3.8890   -2.2320    2.7060 O   0  0  0  0  0  0  0  0  0  0  0  0
    1.9280   -1.0250   -1.1980 H   0  0  0  0  0  0  0  0  0  0  0  0
    3.7590   -2.0760    0.0780 H   0  0  0  0  0  0  0  0  0  0  0  0
    1.7610   -1.0920    3.7610 H   0  0  0  0  0  0  0  0  0  0  0  0
   -0.0720   -0.0400    2.4900 H   0  0  0  0  0  0  0  0  0  0  0  0
   -0.1950    0.1490   -1.2990 H   0  0  0  0  0  0  0  0  0  0  0  0
    4.5610   -2.5840    2.1010 H   0  0  0  0  0  0  0  0  0  0  0  0
  1  6  2  0  0  0  0
  1  2  1  0  0  0  0
  1 10  1  0  0  0  0
  2  3  2  0  0  0  0
  2 11  1  0  0  0  0
  3  4  1  0  0  0  0
  3  9  1  0  0  0  0
  4  5  2  0  0  0  0
  4 12  1  0  0  0  0
  5  6  1  0  0  0  0
  5 13  1  0  0  0  0
  6  7  1  0  0  0  0
  7  8  2  0  0  0  0
  7 14  1  0  0  0  0
  9 15  1  0  0  0  0
M  END
>  <COMPND>
    mobley_7988076 

>  <AUTHOR>
    GENERATED BY OPEN BABEL 2.3.2

>  <MASTER>
        0    0    0    0    0    0    0    0   15    0   15    0

$$$$
