mobley_7814642.pdb
 OpenBabel09222014463D

 12 12  0  0  0  0  0  0  0  0999 V2000
    1.8850   -1.0360   -0.1120 C   0  0  0  0  0  0  0  0  0  0  0  0
    2.9210   -1.6310    0.6080 C   0  0  0  0  0  0  0  0  0  0  0  0
    2.8780   -1.6520    2.0020 C   0  0  0  0  0  0  0  0  0  0  0  0
    1.8000   -1.0790    2.6760 C   0  0  0  0  0  0  0  0  0  0  0  0
    0.7640   -0.4840    1.9550 C   0  0  0  0  0  0  0  0  0  0  0  0
    0.8070   -0.4630    0.5610 C   0  0  0  0  0  0  0  0  0  0  0  0
   -0.4720    0.2690   -0.3290 Cl  0  0  0  0  0  0  0  0  0  0  0  0
    1.6890   -1.0750    4.4010 Cl  0  0  0  0  0  0  0  0  0  0  0  0
    4.1900   -2.4060    2.8380 Cl  0  0  0  0  0  0  0  0  0  0  0  0
    1.9310   -1.0280   -1.1980 H   0  0  0  0  0  0  0  0  0  0  0  0
    3.7530   -2.0740    0.0670 H   0  0  0  0  0  0  0  0  0  0  0  0
   -0.0780   -0.0340    2.4770 H   0  0  0  0  0  0  0  0  0  0  0  0
  1  6  2  0  0  0  0
  1  2  1  0  0  0  0
  1 10  1  0  0  0  0
  2  3  2  0  0  0  0
  2 11  1  0  0  0  0
  3  4  1  0  0  0  0
  3  9  1  0  0  0  0
  4  5  2  0  0  0  0
  4  8  1  0  0  0  0
  5  6  1  0  0  0  0
  5 12  1  0  0  0  0
  6  7  1  0  0  0  0
M  END
>  <COMPND>
    mobley_7814642 

>  <AUTHOR>
    GENERATED BY OPEN BABEL 2.3.2

>  <MASTER>
        0    0    0    0    0    0    0    0   12    0   12    0

$$$$
