mobley_8983100.pdb
 OpenBabel09222014463D

  5  4  0  0  0  0  0  0  0  0999 V2000
   -0.1790    0.0250   -0.0310 C   0  0  0  0  0  0  0  0  0  0  0  0
    1.7090   -0.2420    0.2920 Br  0  0  0  0  0  0  0  0  0  0  0  0
   -0.5550    0.7240    0.7180 H   0  0  0  0  0  0  0  0  0  0  0  0
   -0.2970    0.4330   -1.0360 H   0  0  0  0  0  0  0  0  0  0  0  0
   -0.6780   -0.9410    0.0570 H   0  0  0  0  0  0  0  0  0  0  0  0
  1  2  1  0  0  0  0
  1  3  1  0  0  0  0
  1  4  1  0  0  0  0
  1  5  1  0  0  0  0
M  END
>  <COMPND>
    mobley_8983100 

>  <AUTHOR>
    GENERATED BY OPEN BABEL 2.3.2

>  <MASTER>
        0    0    0    0    0    0    0    0    5    0    5    0

$$$$
