mobley_3259411.pdb
 OpenBabel09222014463D

 14 13  0  0  0  0  0  0  0  0999 V2000
    0.9860    0.2570   -2.5350 C   0  0  0  0  0  0  0  0  0  0  0  0
    1.1440    1.2330   -1.3740 C   0  0  0  0  0  0  0  0  0  0  0  0
    0.9520    0.5380   -0.0330 C   0  0  0  0  0  0  0  0  0  0  0  0
    1.1110    1.4950    1.0100 O   0  0  0  0  0  0  0  0  0  0  0  0
    2.4670    1.7730   -1.4060 O   0  0  0  0  0  0  0  0  0  0  0  0
    1.1710    0.9410   -3.7700 O   0  0  0  0  0  0  0  0  0  0  0  0
   -0.0100   -0.1980   -2.5460 H   0  0  0  0  0  0  0  0  0  0  0  0
    1.7370   -0.5370   -2.4870 H   0  0  0  0  0  0  0  0  0  0  0  0
    0.4550    2.0800   -1.4720 H   0  0  0  0  0  0  0  0  0  0  0  0
    1.6990   -0.2490    0.1170 H   0  0  0  0  0  0  0  0  0  0  0  0
   -0.0520    0.1110    0.0500 H   0  0  0  0  0  0  0  0  0  0  0  0
    0.9830    1.0190    1.8450 H   0  0  0  0  0  0  0  0  0  0  0  0
    2.5570    2.2220   -2.2600 H   0  0  0  0  0  0  0  0  0  0  0  0
    1.0610    0.2810   -4.4720 H   0  0  0  0  0  0  0  0  0  0  0  0
  1  2  1  0  0  0  0
  1  6  1  0  0  0  0
  1  7  1  0  0  0  0
  1  8  1  0  0  0  0
  2  3  1  0  0  0  0
  2  5  1  0  0  0  0
  2  9  1  0  0  0  0
  3  4  1  0  0  0  0
  3 10  1  0  0  0  0
  3 11  1  0  0  0  0
  4 12  1  0  0  0  0
  5 13  1  0  0  0  0
  6 14  1  0  0  0  0
M  END
>  <COMPND>
    mobley_3259411 

>  <AUTHOR>
    GENERATED BY OPEN BABEL 2.3.2

>  <MASTER>
        0    0    0    0    0    0    0    0   14    0   14    0

$$$$
