mobley_4584540.pdb
 OpenBabel09222014463D

 17 17  0  0  0  0  0  0  0  0999 V2000
    0.9810   -2.1310    4.7570 C   0  0  0  0  0  0  0  0  0  0  0  0
    0.7300   -1.5160    3.4210 C   0  0  0  0  0  0  0  0  0  0  0  0
    1.6520   -0.6230    2.9000 C   0  0  0  0  0  0  0  0  0  0  0  0
    1.3880   -0.0680    1.6520 C   0  0  0  0  0  0  0  0  0  0  0  0
    0.2270   -0.4200    0.9730 C   0  0  0  0  0  0  0  0  0  0  0  0
   -0.6320   -1.3220    1.5800 C   0  0  0  0  0  0  0  0  0  0  0  0
   -0.4090   -1.8820    2.7910 N   0  0  0  0  0  0  0  0  0  0  0  0
   -1.8870   -1.7230    0.8800 C   0  0  0  0  0  0  0  0  0  0  0  0
    1.5430   -3.0630    4.6410 H   0  0  0  0  0  0  0  0  0  0  0  0
    1.5510   -1.4510    5.3990 H   0  0  0  0  0  0  0  0  0  0  0  0
    0.0380   -2.3470    5.2710 H   0  0  0  0  0  0  0  0  0  0  0  0
    2.5550   -0.3580    3.4390 H   0  0  0  0  0  0  0  0  0  0  0  0
    2.0850    0.6370    1.2100 H   0  0  0  0  0  0  0  0  0  0  0  0
    0.0080    0.0060    0.0000 H   0  0  0  0  0  0  0  0  0  0  0  0
   -1.7090   -2.6030    0.2510 H   0  0  0  0  0  0  0  0  0  0  0  0
   -2.6830   -1.9620    1.5970 H   0  0  0  0  0  0  0  0  0  0  0  0
   -2.2650   -0.9110    0.2460 H   0  0  0  0  0  0  0  0  0  0  0  0
  1  2  1  0  0  0  0
  1  9  1  0  0  0  0
  1 10  1  0  0  0  0
  1 11  1  0  0  0  0
  2  7  2  0  0  0  0
  2  3  1  0  0  0  0
  3  4  2  0  0  0  0
  3 12  1  0  0  0  0
  4  5  1  0  0  0  0
  4 13  1  0  0  0  0
  5  6  2  0  0  0  0
  5 14  1  0  0  0  0
  6  7  1  0  0  0  0
  6  8  1  0  0  0  0
  8 15  1  0  0  0  0
  8 16  1  0  0  0  0
  8 17  1  0  0  0  0
M  END
>  <COMPND>
    mobley_4584540 

>  <AUTHOR>
    GENERATED BY OPEN BABEL 2.3.2

>  <MASTER>
        0    0    0    0    0    0    0    0   17    0   17    0

$$$$
