mobley_9121449.pdb
 OpenBabel09222014463D

 10  9  0  0  0  0  0  0  0  0999 V2000
    1.0320    0.2740    0.2460 C   0  0  0  0  0  0  0  0  0  0  0  0
    1.4680   -0.3550    1.5590 C   0  0  0  0  0  0  0  0  0  0  0  0
    1.3990   -1.8210    1.4970 C   0  0  0  0  0  0  0  0  0  0  0  0
    1.3440   -3.0190    1.4500 C   0  0  0  0  0  0  0  0  0  0  0  0
    1.0840    1.3670    0.2940 H   0  0  0  0  0  0  0  0  0  0  0  0
    0.0010   -0.0020   -0.0020 H   0  0  0  0  0  0  0  0  0  0  0  0
    1.6790   -0.0620   -0.5700 H   0  0  0  0  0  0  0  0  0  0  0  0
    0.8280    0.0120    2.3680 H   0  0  0  0  0  0  0  0  0  0  0  0
    2.4920   -0.0420    1.7890 H   0  0  0  0  0  0  0  0  0  0  0  0
    1.2950   -4.0820    1.4090 H   0  0  0  0  0  0  0  0  0  0  0  0
  1  2  1  0  0  0  0
  1  5  1  0  0  0  0
  1  6  1  0  0  0  0
  1  7  1  0  0  0  0
  2  3  1  0  0  0  0
  2  8  1  0  0  0  0
  2  9  1  0  0  0  0
  3  4  3  0  0  0  0
  4 10  1  0  0  0  0
M  END
>  <COMPND>
    mobley_9121449 

>  <AUTHOR>
    GENERATED BY OPEN BABEL 2.3.2

>  <MASTER>
        0    0    0    0    0    0    0    0   10    0   10    0

$$$$
