mobley_9055303.pdb
 OpenBabel09222014463D

  5  4  0  0  0  0  0  0  0  0999 V2000
    0.0000    0.0000    0.0000 C   0  0  0  0  0  0  0  0  0  0  0  0
   -0.0570    1.0870   -0.0860 H   0  0  0  0  0  0  0  0  0  0  0  0
    0.6200   -0.3970   -0.8070 H   0  0  0  0  0  0  0  0  0  0  0  0
   -1.0040   -0.4240   -0.0700 H   0  0  0  0  0  0  0  0  0  0  0  0
    0.4420   -0.2670    0.9630 H   0  0  0  0  0  0  0  0  0  0  0  0
  1  2  1  0  0  0  0
  1  3  1  0  0  0  0
  1  4  1  0  0  0  0
  1  5  1  0  0  0  0
M  END
>  <COMPND>
    mobley_9055303 

>  <AUTHOR>
    GENERATED BY OPEN BABEL 2.3.2

>  <MASTER>
        0    0    0    0    0    0    0    0    5    0    5    0

$$$$
