mobley_7393673.pdb
 OpenBabel09222014463D

 22 22  0  0  0  0  0  0  0  0999 V2000
    0.8350   -0.3920   -2.1380 C   0  0  0  0  0  0  0  0  0  0  0  0
    1.9270   -1.0160   -1.4730 O   0  0  0  0  0  0  0  0  0  0  0  0
    1.8850   -1.0360   -0.1120 C   0  0  0  0  0  0  0  0  0  0  0  0
    2.9210   -1.6310    0.6080 C   0  0  0  0  0  0  0  0  0  0  0  0
    2.8780   -1.6520    2.0020 C   0  0  0  0  0  0  0  0  0  0  0  0
    1.8000   -1.0790    2.6760 C   0  0  0  0  0  0  0  0  0  0  0  0
    0.7640   -0.4840    1.9550 C   0  0  0  0  0  0  0  0  0  0  0  0
    0.8070   -0.4630    0.5610 C   0  0  0  0  0  0  0  0  0  0  0  0
    1.7560   -1.0990    4.1290 C   0  0  0  0  0  0  0  0  0  0  0  0
    2.6300   -1.6020    4.8490 O   0  0  0  0  0  0  0  0  0  0  0  0
    0.6280   -0.4910    4.6080 O   0  0  0  0  0  0  0  0  0  0  0  0
    0.4710   -0.4460    6.0300 C   0  0  0  0  0  0  0  0  0  0  0  0
    0.9890   -0.4420   -3.2190 H   0  0  0  0  0  0  0  0  0  0  0  0
    0.7590    0.6500   -1.8180 H   0  0  0  0  0  0  0  0  0  0  0  0
   -0.0870   -0.9190   -1.8790 H   0  0  0  0  0  0  0  0  0  0  0  0
    3.7640   -2.0790    0.0890 H   0  0  0  0  0  0  0  0  0  0  0  0
    3.6920   -2.1180    2.5530 H   0  0  0  0  0  0  0  0  0  0  0  0
   -0.0810   -0.0340    2.4700 H   0  0  0  0  0  0  0  0  0  0  0  0
   -0.0030    0.0020    0.0050 H   0  0  0  0  0  0  0  0  0  0  0  0
   -0.4620    0.0620    6.2620 H   0  0  0  0  0  0  0  0  0  0  0  0
    1.3180    0.0850    6.4580 H   0  0  0  0  0  0  0  0  0  0  0  0
    0.4430   -1.4680    6.4010 H   0  0  0  0  0  0  0  0  0  0  0  0
  1  2  1  0  0  0  0
  1 13  1  0  0  0  0
  1 14  1  0  0  0  0
  1 15  1  0  0  0  0
  2  3  1  0  0  0  0
  3  8  2  0  0  0  0
  3  4  1  0  0  0  0
  4  5  2  0  0  0  0
  4 16  1  0  0  0  0
  5  6  1  0  0  0  0
  5 17  1  0  0  0  0
  6  7  2  0  0  0  0
  6  9  1  0  0  0  0
  7  8  1  0  0  0  0
  7 18  1  0  0  0  0
  8 19  1  0  0  0  0
  9 10  2  0  0  0  0
  9 11  1  0  0  0  0
 11 12  1  0  0  0  0
 12 20  1  0  0  0  0
 12 21  1  0  0  0  0
 12 22  1  0  0  0  0
M  END
>  <COMPND>
    mobley_7393673 

>  <AUTHOR>
    GENERATED BY OPEN BABEL 2.3.2

>  <MASTER>
        0    0    0    0    0    0    0    0   22    0   22    0

$$$$
