mobley_1199854.pdb
 OpenBabel09222014463D

 11 10  0  0  0  0  0  0  0  0999 V2000
   -0.5090   -0.5490    0.7980 C   0  0  0  0  0  0  0  0  0  0  0  0
    0.3040   -0.5210    2.0830 C   0  0  0  0  0  0  0  0  0  0  0  0
    1.6750   -1.1640    1.8860 C   0  0  0  0  0  0  0  0  0  0  0  0
    2.8010   -1.1140    3.7030 I   0  0  0  0  0  0  0  0  0  0  0  0
   -1.4870   -0.0850    0.9590 H   0  0  0  0  0  0  0  0  0  0  0  0
    0.0000    0.0000    0.0000 H   0  0  0  0  0  0  0  0  0  0  0  0
   -0.6720   -1.5770    0.4600 H   0  0  0  0  0  0  0  0  0  0  0  0
   -0.2530   -1.0470    2.8690 H   0  0  0  0  0  0  0  0  0  0  0  0
    0.4150    0.5190    2.4120 H   0  0  0  0  0  0  0  0  0  0  0  0
    2.2290   -0.6350    1.1020 H   0  0  0  0  0  0  0  0  0  0  0  0
    1.5600   -2.2040    1.5600 H   0  0  0  0  0  0  0  0  0  0  0  0
  1  2  1  0  0  0  0
  1  5  1  0  0  0  0
  1  6  1  0  0  0  0
  1  7  1  0  0  0  0
  2  3  1  0  0  0  0
  2  8  1  0  0  0  0
  2  9  1  0  0  0  0
  3  4  1  0  0  0  0
  3 10  1  0  0  0  0
  3 11  1  0  0  0  0
M  END
>  <COMPND>
    mobley_1199854 

>  <AUTHOR>
    GENERATED BY OPEN BABEL 2.3.2

>  <MASTER>
        0    0    0    0    0    0    0    0   11    0   11    0

$$$$
