mobley_1144156.pdb
 OpenBabel09222014463D

 15 14  0  0  0  0  0  0  0  0999 V2000
    0.9170    1.4500    0.5860 C   0  0  0  0  0  0  0  0  0  0  0  0
    1.9100    0.9130   -0.4220 C   0  0  0  0  0  0  0  0  0  0  0  0
    1.5170    1.3240   -1.7230 O   0  0  0  0  0  0  0  0  0  0  0  0
    2.4160    0.8470   -2.7160 C   0  0  0  0  0  0  0  0  0  0  0  0
    1.9420    1.3180   -4.0740 C   0  0  0  0  0  0  0  0  0  0  0  0
    1.1910    1.1510    1.6010 H   0  0  0  0  0  0  0  0  0  0  0  0
    0.8720    2.5430    0.5390 H   0  0  0  0  0  0  0  0  0  0  0  0
   -0.0910    1.0810    0.3690 H   0  0  0  0  0  0  0  0  0  0  0  0
    1.9350   -0.1810   -0.3910 H   0  0  0  0  0  0  0  0  0  0  0  0
    2.9130    1.3000   -0.2180 H   0  0  0  0  0  0  0  0  0  0  0  0
    3.4140    1.2360   -2.5010 H   0  0  0  0  0  0  0  0  0  0  0  0
    2.4380   -0.2450   -2.6730 H   0  0  0  0  0  0  0  0  0  0  0  0
    2.6130    0.9680   -4.8630 H   0  0  0  0  0  0  0  0  0  0  0  0
    0.9310    0.9500   -4.2800 H   0  0  0  0  0  0  0  0  0  0  0  0
    1.8950    2.4120   -4.1090 H   0  0  0  0  0  0  0  0  0  0  0  0
  1  2  1  0  0  0  0
  1  6  1  0  0  0  0
  1  7  1  0  0  0  0
  1  8  1  0  0  0  0
  2  3  1  0  0  0  0
  2  9  1  0  0  0  0
  2 10  1  0  0  0  0
  3  4  1  0  0  0  0
  4  5  1  0  0  0  0
  4 11  1  0  0  0  0
  4 12  1  0  0  0  0
  5 13  1  0  0  0  0
  5 14  1  0  0  0  0
  5 15  1  0  0  0  0
M  END
>  <COMPND>
    mobley_1144156 

>  <AUTHOR>
    GENERATED BY OPEN BABEL 2.3.2

>  <MASTER>
        0    0    0    0    0    0    0    0   15    0   15    0

$$$$
