mobley_1770205.pdb
 OpenBabel09222014463D

 31 32  0  0  0  0  0  0  0  0999 V2000
    0.8990    0.3180    0.1370 C   0  0  0  0  0  0  0  0  0  0  0  0
    1.1460   -1.0760    0.0650 O   0  0  0  0  0  0  0  0  0  0  0  0
    2.0710   -1.6910   -1.1350 P   0  0  0  0  0  0  0  0  0  0  0  0
    1.3290   -1.3170   -2.9120 S   0  0  0  0  0  0  0  0  0  0  0  0
    1.9400   -3.2710   -0.7340 O   0  0  0  0  0  0  0  0  0  0  0  0
    2.5950   -4.2640   -1.5070 C   0  0  0  0  0  0  0  0  0  0  0  0
    4.0770   -1.1110   -0.7260 S   0  0  0  0  0  0  0  0  0  0  0  0
    4.4610   -1.8270    0.8830 C   0  0  0  0  0  0  0  0  0  0  0  0
    5.8000   -1.5040    1.2750 N   0  0  0  0  0  0  0  0  0  0  0  0
    6.8360   -2.3670    0.9100 C   0  0  0  0  0  0  0  0  0  0  0  0
    6.6920   -3.4020    0.2670 O   0  0  0  0  0  0  0  0  0  0  0  0
    8.1740   -1.9700    1.3480 C   0  0  0  0  0  0  0  0  0  0  0  0
    9.3030   -2.7400    1.0530 C   0  0  0  0  0  0  0  0  0  0  0  0
   10.5550   -2.3160    1.4930 C   0  0  0  0  0  0  0  0  0  0  0  0
   10.6720   -1.1340    2.2210 C   0  0  0  0  0  0  0  0  0  0  0  0
    9.5350   -0.3750    2.5080 C   0  0  0  0  0  0  0  0  0  0  0  0
    8.2710   -0.7890    2.0710 C   0  0  0  0  0  0  0  0  0  0  0  0
    7.1580    0.0010    2.3780 N   0  0  0  0  0  0  0  0  0  0  0  0
    6.0210   -0.3530    1.9980 N   0  0  0  0  0  0  0  0  0  0  0  0
    0.2650    0.5320    1.0010 H   0  0  0  0  0  0  0  0  0  0  0  0
    0.4060    0.6490   -0.7810 H   0  0  0  0  0  0  0  0  0  0  0  0
    1.8500    0.8430    0.2470 H   0  0  0  0  0  0  0  0  0  0  0  0
    2.3880   -5.2480   -1.0830 H   0  0  0  0  0  0  0  0  0  0  0  0
    3.6710   -4.0720   -1.5070 H   0  0  0  0  0  0  0  0  0  0  0  0
    2.2170   -4.2210   -2.5300 H   0  0  0  0  0  0  0  0  0  0  0  0
    4.3710   -2.9160    0.8450 H   0  0  0  0  0  0  0  0  0  0  0  0
    3.7800   -1.4370    1.6430 H   0  0  0  0  0  0  0  0  0  0  0  0
    9.2260   -3.6630    0.4870 H   0  0  0  0  0  0  0  0  0  0  0  0
   11.4390   -2.9060    1.2700 H   0  0  0  0  0  0  0  0  0  0  0  0
   11.6470   -0.8010    2.5650 H   0  0  0  0  0  0  0  0  0  0  0  0
    9.6430    0.5460    3.0770 H   0  0  0  0  0  0  0  0  0  0  0  0
  1  2  1  0  0  0  0
  1 20  1  0  0  0  0
  1 21  1  0  0  0  0
  1 22  1  0  0  0  0
  2  3  1  0  0  0  0
  3  4  1  0  0  0  0
  3  5  1  0  0  0  0
  3  7  1  0  0  0  0
  5  6  1  0  0  0  0
  6 23  1  0  0  0  0
  6 24  1  0  0  0  0
  6 25  1  0  0  0  0
  7  8  1  0  0  0  0
  8  9  1  0  0  0  0
  8 26  1  0  0  0  0
  8 27  1  0  0  0  0
  9 19  1  0  0  0  0
  9 10  1  0  0  0  0
 10 11  2  0  0  0  0
 10 12  1  0  0  0  0
 12 17  2  0  0  0  0
 12 13  1  0  0  0  0
 13 14  2  0  0  0  0
 13 28  1  0  0  0  0
 14 15  1  0  0  0  0
 14 29  1  0  0  0  0
 15 16  2  0  0  0  0
 15 30  1  0  0  0  0
 16 17  1  0  0  0  0
 16 31  1  0  0  0  0
 17 18  1  0  0  0  0
 18 19  2  0  0  0  0
M  END
>  <COMPND>
    mobley_1770205 

>  <AUTHOR>
    GENERATED BY OPEN BABEL 2.3.2

>  <MASTER>
        0    0    0    0    0    0    0    0   31    0   31    0

$$$$
