mobley_1723043.pdb
 OpenBabel09222014463D

 12 12  0  0  0  0  0  0  0  0999 V2000
   -0.0660    0.9410   -0.5300 C   0  0  0  0  0  0  0  0  0  0  0  0
   -0.8290   -0.4040   -0.5660 C   0  0  0  0  0  0  0  0  0  0  0  0
   -0.1010   -0.7770    0.7470 C   0  0  0  0  0  0  0  0  0  0  0  0
    0.9960    0.2390    0.3490 C   0  0  0  0  0  0  0  0  0  0  0  0
    2.0480   -0.2820   -0.3230 F   0  0  0  0  0  0  0  0  0  0  0  0
    1.5030    0.9790    1.3590 F   0  0  0  0  0  0  0  0  0  0  0  0
    0.3000   -2.0630    0.8500 F   0  0  0  0  0  0  0  0  0  0  0  0
   -0.7750   -0.4830    1.8830 F   0  0  0  0  0  0  0  0  0  0  0  0
   -0.5500   -1.1970   -1.6260 F   0  0  0  0  0  0  0  0  0  0  0  0
   -2.1750   -0.3160   -0.4860 F   0  0  0  0  0  0  0  0  0  0  0  0
   -0.7240    1.9620    0.0660 F   0  0  0  0  0  0  0  0  0  0  0  0
    0.3720    1.4000   -1.7230 F   0  0  0  0  0  0  0  0  0  0  0  0
  1  4  1  0  0  0  0
  1  2  1  0  0  0  0
  1 11  1  0  0  0  0
  1 12  1  0  0  0  0
  2  3  1  0  0  0  0
  2  9  1  0  0  0  0
  2 10  1  0  0  0  0
  3  4  1  0  0  0  0
  3  7  1  0  0  0  0
  3  8  1  0  0  0  0
  4  5  1  0  0  0  0
  4  6  1  0  0  0  0
M  END
>  <COMPND>
    mobley_1723043 

>  <AUTHOR>
    GENERATED BY OPEN BABEL 2.3.2

>  <MASTER>
        0    0    0    0    0    0    0    0   12    0   12    0

$$$$
