mobley_9114381.pdb
 OpenBabel09222014463D

 12 11  0  0  0  0  0  0  0  0999 V2000
   -0.9280    0.5690    0.0840 C   0  0  0  0  0  0  0  0  0  0  0  0
   -1.2500    0.7970    1.4600 O   0  0  0  0  0  0  0  0  0  0  0  0
   -1.4580   -0.3260    2.2100 C   0  0  0  0  0  0  0  0  0  0  0  0
   -1.3920   -1.4790    1.8050 O   0  0  0  0  0  0  0  0  0  0  0  0
   -1.7830    0.0870    3.6250 C   0  0  0  0  0  0  0  0  0  0  0  0
   -2.0210   -1.0690    4.4960 C   0  0  0  0  0  0  0  0  0  0  0  0
   -2.2110   -1.9810    5.1890 N   0  0  0  0  0  0  0  0  0  0  0  0
   -0.7830    1.5280   -0.4210 H   0  0  0  0  0  0  0  0  0  0  0  0
   -1.7390    0.0130   -0.3930 H   0  0  0  0  0  0  0  0  0  0  0  0
   -0.0060   -0.0140    0.0260 H   0  0  0  0  0  0  0  0  0  0  0  0
   -2.6780    0.7190    3.6030 H   0  0  0  0  0  0  0  0  0  0  0  0
   -0.9440    0.6730    4.0140 H   0  0  0  0  0  0  0  0  0  0  0  0
  1  2  1  0  0  0  0
  1  8  1  0  0  0  0
  1  9  1  0  0  0  0
  1 10  1  0  0  0  0
  2  3  1  0  0  0  0
  3  4  2  0  0  0  0
  3  5  1  0  0  0  0
  5  6  1  0  0  0  0
  5 11  1  0  0  0  0
  5 12  1  0  0  0  0
  6  7  3  0  0  0  0
M  END
>  <COMPND>
    mobley_9114381 

>  <AUTHOR>
    GENERATED BY OPEN BABEL 2.3.2

>  <MASTER>
        0    0    0    0    0    0    0    0   12    0   12    0

$$$$
