mobley_2751110.pdb
 OpenBabel09222014463D

 15 15  0  0  0  0  0  0  0  0999 V2000
    1.8850   -1.0360   -0.1120 C   0  0  0  0  0  0  0  0  0  0  0  0
    2.9210   -1.6310    0.6080 C   0  0  0  0  0  0  0  0  0  0  0  0
    2.8780   -1.6520    2.0020 C   0  0  0  0  0  0  0  0  0  0  0  0
    1.8000   -1.0790    2.6760 C   0  0  0  0  0  0  0  0  0  0  0  0
    0.7640   -0.4840    1.9550 C   0  0  0  0  0  0  0  0  0  0  0  0
    0.8070   -0.4630    0.5610 C   0  0  0  0  0  0  0  0  0  0  0  0
   -0.2490    0.1400   -0.1730 N   0  0  0  0  0  0  0  0  0  0  0  0
   -0.1910    0.1480   -1.4260 O   0  5  0  0  0  0  0  0  0  0  0  0
   -1.2110    0.6490    0.4520 O   0  5  0  0  0  0  0  0  0  0  0  0
    3.8890   -2.2320    2.7060 O   0  0  0  0  0  0  0  0  0  0  0  0
    1.9300   -1.0270   -1.1990 H   0  0  0  0  0  0  0  0  0  0  0  0
    3.7590   -2.0760    0.0780 H   0  0  0  0  0  0  0  0  0  0  0  0
    1.7600   -1.0930    3.7610 H   0  0  0  0  0  0  0  0  0  0  0  0
   -0.0710   -0.0410    2.4920 H   0  0  0  0  0  0  0  0  0  0  0  0
    4.5620   -2.5830    2.1010 H   0  0  0  0  0  0  0  0  0  0  0  0
  1  6  2  0  0  0  0
  1  2  1  0  0  0  0
  1 11  1  0  0  0  0
  2  3  2  0  0  0  0
  2 12  1  0  0  0  0
  3  4  1  0  0  0  0
  3 10  1  0  0  0  0
  4  5  2  0  0  0  0
  4 13  1  0  0  0  0
  5  6  1  0  0  0  0
  5 14  1  0  0  0  0
  6  7  1  0  0  0  0
  7  8  2  0  0  0  0
  7  9  2  0  0  0  0
 10 15  1  0  0  0  0
M  CHG  2   8  -1   9  -1
M  END
>  <COMPND>
    mobley_2751110 

>  <AUTHOR>
    GENERATED BY OPEN BABEL 2.3.2

>  <MASTER>
        0    0    0    0    0    0    0    0   15    0   15    0

$$$$
