mobley_3323117.pdb
 OpenBabel09222014463D

 15 15  0  0  0  0  0  0  0  0999 V2000
    0.1370    1.6660    0.7410 C   0  0  0  0  0  0  0  0  0  0  0  0
    0.4960    1.5960   -0.7420 C   0  0  0  0  0  0  0  0  0  0  0  0
    0.9200    0.1560   -1.0070 C   0  0  0  0  0  0  0  0  0  0  0  0
   -0.1640   -0.8460    0.0000 S   0  0  0  0  0  0  0  0  0  0  0  0
   -0.7940    0.4890    1.0070 C   0  0  0  0  0  0  0  0  0  0  0  0
    0.6460   -1.7140    0.8290 O   0  0  0  0  0  0  0  0  0  0  0  0
   -1.2400   -1.3480   -0.8290 O   0  0  0  0  0  0  0  0  0  0  0  0
   -0.3360    2.6170    1.0030 H   0  0  0  0  0  0  0  0  0  0  0  0
    1.0480    1.5660    1.3450 H   0  0  0  0  0  0  0  0  0  0  0  0
   -0.3860    1.8430   -1.3460 H   0  0  0  0  0  0  0  0  0  0  0  0
    1.2900    2.3020   -1.0030 H   0  0  0  0  0  0  0  0  0  0  0  0
    0.8170   -0.1250   -2.0570 H   0  0  0  0  0  0  0  0  0  0  0  0
    1.9460   -0.0180   -0.6700 H   0  0  0  0  0  0  0  0  0  0  0  0
   -1.8120    0.7100    0.6710 H   0  0  0  0  0  0  0  0  0  0  0  0
   -0.8030    0.1900    2.0570 H   0  0  0  0  0  0  0  0  0  0  0  0
  1  5  1  0  0  0  0
  1  2  1  0  0  0  0
  1  8  1  0  0  0  0
  1  9  1  0  0  0  0
  2  3  1  0  0  0  0
  2 10  1  0  0  0  0
  2 11  1  0  0  0  0
  3  4  1  0  0  0  0
  3 12  1  0  0  0  0
  3 13  1  0  0  0  0
  4  5  1  0  0  0  0
  4  6  2  0  0  0  0
  4  7  2  0  0  0  0
  5 14  1  0  0  0  0
  5 15  1  0  0  0  0
M  END
>  <COMPND>
    mobley_3323117 

>  <AUTHOR>
    GENERATED BY OPEN BABEL 2.3.2

>  <MASTER>
        0    0    0    0    0    0    0    0   15    0   15    0

$$$$
