mobley_2613240.pdb
 OpenBabel09222014463D

 20 20  0  0  0  0  0  0  0  0999 V2000
    1.3500   -2.1270   -2.1490 C   0  0  0  0  0  0  0  0  0  0  0  0
    1.9380   -1.0220   -1.4740 O   0  0  0  0  0  0  0  0  0  0  0  0
    1.8850   -1.0360   -0.1120 C   0  0  0  0  0  0  0  0  0  0  0  0
    2.9210   -1.6310    0.6080 C   0  0  0  0  0  0  0  0  0  0  0  0
    2.8780   -1.6520    2.0020 C   0  0  0  0  0  0  0  0  0  0  0  0
    1.8000   -1.0790    2.6760 C   0  0  0  0  0  0  0  0  0  0  0  0
    0.7640   -0.4840    1.9550 C   0  0  0  0  0  0  0  0  0  0  0  0
    0.8070   -0.4630    0.5610 C   0  0  0  0  0  0  0  0  0  0  0  0
   -0.2120    0.1190   -0.1310 O   0  0  0  0  0  0  0  0  0  0  0  0
   -1.2770    0.6820    0.6330 C   0  0  0  0  0  0  0  0  0  0  0  0
    1.4580   -1.9960   -3.2280 H   0  0  0  0  0  0  0  0  0  0  0  0
    0.2910   -2.1960   -1.8840 H   0  0  0  0  0  0  0  0  0  0  0  0
    1.8600   -3.0440   -1.8430 H   0  0  0  0  0  0  0  0  0  0  0  0
    3.7640   -2.0800    0.0900 H   0  0  0  0  0  0  0  0  0  0  0  0
    3.6860   -2.1140    2.5630 H   0  0  0  0  0  0  0  0  0  0  0  0
    1.7660   -1.0970    3.7610 H   0  0  0  0  0  0  0  0  0  0  0  0
   -0.0740   -0.0400    2.4850 H   0  0  0  0  0  0  0  0  0  0  0  0
   -2.0140    1.1080   -0.0460 H   0  0  0  0  0  0  0  0  0  0  0  0
   -0.8730    1.4500    1.2920 H   0  0  0  0  0  0  0  0  0  0  0  0
   -1.7330   -0.1110    1.2240 H   0  0  0  0  0  0  0  0  0  0  0  0
  1  2  1  0  0  0  0
  1 11  1  0  0  0  0
  1 12  1  0  0  0  0
  1 13  1  0  0  0  0
  2  3  1  0  0  0  0
  3  8  2  0  0  0  0
  3  4  1  0  0  0  0
  4  5  2  0  0  0  0
  4 14  1  0  0  0  0
  5  6  1  0  0  0  0
  5 15  1  0  0  0  0
  6  7  2  0  0  0  0
  6 16  1  0  0  0  0
  7  8  1  0  0  0  0
  7 17  1  0  0  0  0
  8  9  1  0  0  0  0
  9 10  1  0  0  0  0
 10 18  1  0  0  0  0
 10 19  1  0  0  0  0
 10 20  1  0  0  0  0
M  END
>  <COMPND>
    mobley_2613240 

>  <AUTHOR>
    GENERATED BY OPEN BABEL 2.3.2

>  <MASTER>
        0    0    0    0    0    0    0    0   20    0   20    0

$$$$
