mobley_7768165.pdb
 OpenBabel09222014463D

  8  7  0  0  0  0  0  0  0  0999 V2000
    0.2950   -0.5820    0.3980 C   0  0  0  0  0  0  0  0  0  0  0  0
   -0.2990    0.5940   -0.3440 C   0  0  0  0  0  0  0  0  0  0  0  0
   -0.2000    0.2720   -2.2610 Br  0  0  0  0  0  0  0  0  0  0  0  0
    0.2120   -0.3040    2.1520 Cl  0  0  0  0  0  0  0  0  0  0  0  0
    1.3470   -0.7340    0.1360 H   0  0  0  0  0  0  0  0  0  0  0  0
   -0.2470   -1.5090    0.1830 H   0  0  0  0  0  0  0  0  0  0  0  0
    0.2490    1.5220   -0.1560 H   0  0  0  0  0  0  0  0  0  0  0  0
   -1.3570    0.7410   -0.1080 H   0  0  0  0  0  0  0  0  0  0  0  0
  1  2  1  0  0  0  0
  1  4  1  0  0  0  0
  1  5  1  0  0  0  0
  1  6  1  0  0  0  0
  2  3  1  0  0  0  0
  2  7  1  0  0  0  0
  2  8  1  0  0  0  0
M  END
>  <COMPND>
    mobley_7768165 

>  <AUTHOR>
    GENERATED BY OPEN BABEL 2.3.2

>  <MASTER>
        0    0    0    0    0    0    0    0    8    0    8    0

$$$$
