mobley_1717215.pdb
 OpenBabel09222014463D

  8  7  0  0  0  0  0  0  0  0999 V2000
    0.3500   -1.0340    0.0710 C   0  0  0  0  0  0  0  0  0  0  0  0
    1.5790   -1.1920   -0.6450 O   0  0  0  0  0  0  0  0  0  0  0  0
    1.5120   -0.9360   -1.9770 C   0  0  0  0  0  0  0  0  0  0  0  0
    0.5330   -0.5920   -2.6210 O   0  0  0  0  0  0  0  0  0  0  0  0
    0.5110   -1.2620    1.1280 H   0  0  0  0  0  0  0  0  0  0  0  0
   -0.4050   -1.7060   -0.3460 H   0  0  0  0  0  0  0  0  0  0  0  0
    0.0110   -0.0010   -0.0280 H   0  0  0  0  0  0  0  0  0  0  0  0
    2.5110   -1.0900   -2.4120 H   0  0  0  0  0  0  0  0  0  0  0  0
  1  2  1  0  0  0  0
  1  5  1  0  0  0  0
  1  6  1  0  0  0  0
  1  7  1  0  0  0  0
  2  3  1  0  0  0  0
  3  4  2  0  0  0  0
  3  8  1  0  0  0  0
M  END
>  <COMPND>
    mobley_1717215 

>  <AUTHOR>
    GENERATED BY OPEN BABEL 2.3.2

>  <MASTER>
        0    0    0    0    0    0    0    0    8    0    8    0

$$$$
