mobley_5759258.pdb
 OpenBabel09222014463D

 18 17  0  0  0  0  0  0  0  0999 V2000
    0.7910   -0.3880    0.6500 C   0  0  0  0  0  0  0  0  0  0  0  0
    1.6190   -1.4420   -0.0690 C   0  0  0  0  0  0  0  0  0  0  0  0
    2.2940   -0.8690   -1.3150 C   0  0  0  0  0  0  0  0  0  0  0  0
    3.1240   -1.9290   -2.0350 C   0  0  0  0  0  0  0  0  0  0  0  0
    3.8000   -1.3670   -3.2770 C   0  0  0  0  0  0  0  0  0  0  0  0
    4.5530   -2.4000   -3.8970 O   0  0  0  0  0  0  0  0  0  0  0  0
    0.3110   -0.8070    1.5410 H   0  0  0  0  0  0  0  0  0  0  0  0
    1.4150    0.4560    0.9610 H   0  0  0  0  0  0  0  0  0  0  0  0
    0.0060   -0.0060   -0.0100 H   0  0  0  0  0  0  0  0  0  0  0  0
    0.9690   -2.2800   -0.3490 H   0  0  0  0  0  0  0  0  0  0  0  0
    2.3770   -1.8340    0.6180 H   0  0  0  0  0  0  0  0  0  0  0  0
    1.5320   -0.4730   -1.9970 H   0  0  0  0  0  0  0  0  0  0  0  0
    2.9390   -0.0290   -1.0290 H   0  0  0  0  0  0  0  0  0  0  0  0
    2.4900   -2.7780   -2.3200 H   0  0  0  0  0  0  0  0  0  0  0  0
    3.8860   -2.3380   -1.3600 H   0  0  0  0  0  0  0  0  0  0  0  0
    4.4790   -0.5490   -3.0150 H   0  0  0  0  0  0  0  0  0  0  0  0
    3.0580   -0.9990   -3.9920 H   0  0  0  0  0  0  0  0  0  0  0  0
    4.9700   -2.0090   -4.6830 H   0  0  0  0  0  0  0  0  0  0  0  0
  1  2  1  0  0  0  0
  1  7  1  0  0  0  0
  1  8  1  0  0  0  0
  1  9  1  0  0  0  0
  2  3  1  0  0  0  0
  2 10  1  0  0  0  0
  2 11  1  0  0  0  0
  3  4  1  0  0  0  0
  3 12  1  0  0  0  0
  3 13  1  0  0  0  0
  4  5  1  0  0  0  0
  4 14  1  0  0  0  0
  4 15  1  0  0  0  0
  5  6  1  0  0  0  0
  5 16  1  0  0  0  0
  5 17  1  0  0  0  0
  6 18  1  0  0  0  0
M  END
>  <COMPND>
    mobley_5759258 

>  <AUTHOR>
    GENERATED BY OPEN BABEL 2.3.2

>  <MASTER>
        0    0    0    0    0    0    0    0   18    0   18    0

$$$$
