mobley_4039055.pdb
 OpenBabel09222014463D

 12 12  0  0  0  0  0  0  0  0999 V2000
   -0.0500    0.0350   -1.5040 C   0  0  0  0  0  0  0  0  0  0  0  0
    0.9380   -0.3920   -0.7090 C   0  0  0  0  0  0  0  0  0  0  0  0
    0.7460   -0.3240    0.7690 C   0  0  0  0  0  0  0  0  0  0  0  0
    1.6110   -0.6970    1.5570 O   0  0  0  0  0  0  0  0  0  0  0  0
   -0.4800    0.1930    1.1720 N   0  0  0  0  0  0  0  0  0  0  0  0
   -1.5070    0.6360    0.3370 C   0  0  0  0  0  0  0  0  0  0  0  0
   -2.5700    1.0830    0.7690 O   0  0  0  0  0  0  0  0  0  0  0  0
   -1.2280    0.5310   -1.0170 N   0  0  0  0  0  0  0  0  0  0  0  0
    2.5410   -1.0650   -1.3740 Br  0  0  0  0  0  0  0  0  0  0  0  0
    0.0200    0.0160   -2.5850 H   0  0  0  0  0  0  0  0  0  0  0  0
   -0.6450    0.2530    2.1730 H   0  0  0  0  0  0  0  0  0  0  0  0
   -1.9340    0.8360   -1.6800 H   0  0  0  0  0  0  0  0  0  0  0  0
  1  8  1  0  0  0  0
  1  2  2  0  0  0  0
  1 10  1  0  0  0  0
  2  3  1  0  0  0  0
  2  9  1  0  0  0  0
  3  4  2  0  0  0  0
  3  5  1  0  0  0  0
  5  6  1  0  0  0  0
  5 11  1  0  0  0  0
  6  7  2  0  0  0  0
  6  8  1  0  0  0  0
  8 12  1  0  0  0  0
M  END
>  <COMPND>
    mobley_4039055 

>  <AUTHOR>
    GENERATED BY OPEN BABEL 2.3.2

>  <MASTER>
        0    0    0    0    0    0    0    0   12    0   12    0

$$$$
