mobley_8578590.pdb
 OpenBabel09222014463D

 10  9  0  0  0  0  0  0  0  0999 V2000
    0.8450   -0.5680    0.4100 C   0  0  0  0  0  0  0  0  0  0  0  0
    0.8620   -0.5490    2.2960 S   0  0  0  0  0  0  0  0  0  0  0  0
    2.1870   -1.1420    2.6710 O   0  0  0  0  0  0  0  0  0  0  0  0
    1.0230    1.2500    2.4100 C   0  0  0  0  0  0  0  0  0  0  0  0
   -0.0980   -0.1470    0.0540 H   0  0  0  0  0  0  0  0  0  0  0  0
    0.9450   -1.5990    0.0640 H   0  0  0  0  0  0  0  0  0  0  0  0
    1.6810    0.0300    0.0410 H   0  0  0  0  0  0  0  0  0  0  0  0
    1.0570    1.5390    3.4620 H   0  0  0  0  0  0  0  0  0  0  0  0
    0.1630    1.7120    1.9230 H   0  0  0  0  0  0  0  0  0  0  0  0
    1.9430    1.5540    1.9090 H   0  0  0  0  0  0  0  0  0  0  0  0
  1  2  1  0  0  0  0
  1  5  1  0  0  0  0
  1  6  1  0  0  0  0
  1  7  1  0  0  0  0
  2  3  1  0  0  0  0
  2  4  1  0  0  0  0
  4  8  1  0  0  0  0
  4  9  1  0  0  0  0
  4 10  1  0  0  0  0
M  END
>  <COMPND>
    mobley_8578590 

>  <AUTHOR>
    GENERATED BY OPEN BABEL 2.3.2

>  <MASTER>
        0    0    0    0    0    0    0    0   10    0   10    0

$$$$
