mobley_6115639.pdb
 OpenBabel09222014463D

 17 16  0  0  0  0  0  0  0  0999 V2000
    1.0020   -0.2850   -0.3280 C   0  0  0  0  0  0  0  0  0  0  0  0
    1.0800   -0.1390   -1.7360 O   0  0  0  0  0  0  0  0  0  0  0  0
    2.4480   -0.5830   -2.4830 P   0  0  0  0  0  0  0  0  0  0  0  0
    2.8150   -2.0290   -2.3080 O   0  0  0  0  0  0  0  0  0  0  0  0
    2.1850   -0.1340   -4.0170 O   0  0  0  0  0  0  0  0  0  0  0  0
    3.2020   -0.3770   -4.9750 C   0  0  0  0  0  0  0  0  0  0  0  0
    3.5620    0.4610   -1.9410 O   0  0  0  0  0  0  0  0  0  0  0  0
    3.4020    1.8520   -2.1600 C   0  0  0  0  0  0  0  0  0  0  0  0
    0.0240    0.0560    0.0210 H   0  0  0  0  0  0  0  0  0  0  0  0
    1.7940    0.3010    0.1450 H   0  0  0  0  0  0  0  0  0  0  0  0
    1.1300   -1.3400   -0.0730 H   0  0  0  0  0  0  0  0  0  0  0  0
    2.8730   -0.0180   -5.9530 H   0  0  0  0  0  0  0  0  0  0  0  0
    3.4130   -1.4480   -5.0180 H   0  0  0  0  0  0  0  0  0  0  0  0
    4.1050    0.1600   -4.6760 H   0  0  0  0  0  0  0  0  0  0  0  0
    4.2480    2.3890   -1.7260 H   0  0  0  0  0  0  0  0  0  0  0  0
    2.4680    2.1870   -1.7030 H   0  0  0  0  0  0  0  0  0  0  0  0
    3.3670    2.0390   -3.2360 H   0  0  0  0  0  0  0  0  0  0  0  0
  1  2  1  0  0  0  0
  1  9  1  0  0  0  0
  1 10  1  0  0  0  0
  1 11  1  0  0  0  0
  2  3  1  0  0  0  0
  3  4  2  0  0  0  0
  3  5  1  0  0  0  0
  3  7  1  0  0  0  0
  5  6  1  0  0  0  0
  6 12  1  0  0  0  0
  6 13  1  0  0  0  0
  6 14  1  0  0  0  0
  7  8  1  0  0  0  0
  8 15  1  0  0  0  0
  8 16  1  0  0  0  0
  8 17  1  0  0  0  0
M  END
>  <COMPND>
    mobley_6115639 

>  <AUTHOR>
    GENERATED BY OPEN BABEL 2.3.2

>  <MASTER>
        0    0    0    0    0    0    0    0   17    0   17    0

$$$$
