mobley_6060301.pdb
 OpenBabel09222014463D

 22 21  0  0  0  0  0  0  0  0999 V2000
   -2.3100   -1.4080    1.8830 C   0  0  0  0  0  0  0  0  0  0  0  0
   -1.1040   -0.4940    1.7310 C   0  0  0  0  0  0  0  0  0  0  0  0
   -1.2660    0.8540    2.4370 C   0  0  0  0  0  0  0  0  0  0  0  0
   -0.0500    1.7700    2.2800 C   0  0  0  0  0  0  0  0  0  0  0  0
   -0.2650    3.1030    3.0050 C   0  0  0  0  0  0  0  0  0  0  0  0
    0.9300    4.0420    2.8690 C   0  0  0  0  0  0  0  0  0  0  0  0
    0.7290    5.2930    3.5480 N   0  0  0  0  0  0  0  0  0  0  0  0
   -2.1510   -2.3590    1.3640 H   0  0  0  0  0  0  0  0  0  0  0  0
   -2.5240   -1.6190    2.9350 H   0  0  0  0  0  0  0  0  0  0  0  0
   -3.1980   -0.9330    1.4540 H   0  0  0  0  0  0  0  0  0  0  0  0
   -0.8980   -0.3360    0.6660 H   0  0  0  0  0  0  0  0  0  0  0  0
   -0.2280   -1.0020    2.1510 H   0  0  0  0  0  0  0  0  0  0  0  0
   -2.1620    1.3610    2.0600 H   0  0  0  0  0  0  0  0  0  0  0  0
   -1.4360    0.6630    3.5040 H   0  0  0  0  0  0  0  0  0  0  0  0
    0.1390    1.9590    1.2180 H   0  0  0  0  0  0  0  0  0  0  0  0
    0.8390    1.2730    2.6860 H   0  0  0  0  0  0  0  0  0  0  0  0
   -1.1670    3.5910    2.6150 H   0  0  0  0  0  0  0  0  0  0  0  0
   -0.4370    2.9100    4.0710 H   0  0  0  0  0  0  0  0  0  0  0  0
    1.1400    4.2620    1.8180 H   0  0  0  0  0  0  0  0  0  0  0  0
    1.8200    3.5810    3.3080 H   0  0  0  0  0  0  0  0  0  0  0  0
    0.9150    5.3510    4.5370 H   0  0  0  0  0  0  0  0  0  0  0  0
    0.2190    6.0280    3.0840 H   0  0  0  0  0  0  0  0  0  0  0  0
  1  2  1  0  0  0  0
  1  8  1  0  0  0  0
  1  9  1  0  0  0  0
  1 10  1  0  0  0  0
  2  3  1  0  0  0  0
  2 11  1  0  0  0  0
  2 12  1  0  0  0  0
  3  4  1  0  0  0  0
  3 13  1  0  0  0  0
  3 14  1  0  0  0  0
  4  5  1  0  0  0  0
  4 15  1  0  0  0  0
  4 16  1  0  0  0  0
  5  6  1  0  0  0  0
  5 17  1  0  0  0  0
  5 18  1  0  0  0  0
  6  7  1  0  0  0  0
  6 19  1  0  0  0  0
  6 20  1  0  0  0  0
  7 21  1  0  0  0  0
  7 22  1  0  0  0  0
M  END
>  <COMPND>
    mobley_6060301 

>  <AUTHOR>
    GENERATED BY OPEN BABEL 2.3.2

>  <MASTER>
        0    0    0    0    0    0    0    0   22    0   22    0

$$$$
