mobley_3269565.pdb
 OpenBabel09222014463D

 15 14  0  0  0  0  0  0  0  0999 V2000
    1.0770    0.0500    0.1960 C   0  0  0  0  0  0  0  0  0  0  0  0
    1.3530    0.9190    1.4130 C   0  0  0  0  0  0  0  0  0  0  0  0
    2.8430    1.0380    1.6980 C   0  0  0  0  0  0  0  0  0  0  0  0
    0.8120    2.2180    1.1940 O   0  0  0  0  0  0  0  0  0  0  0  0
   -0.5870    2.2450    1.4350 C   0  0  0  0  0  0  0  0  0  0  0  0
    0.0030   -0.0290    0.0000 H   0  0  0  0  0  0  0  0  0  0  0  0
    1.5640    0.4690   -0.6910 H   0  0  0  0  0  0  0  0  0  0  0  0
    1.4830   -0.9590    0.3310 H   0  0  0  0  0  0  0  0  0  0  0  0
    0.8470    0.4960    2.2870 H   0  0  0  0  0  0  0  0  0  0  0  0
    3.0310    1.6650    2.5750 H   0  0  0  0  0  0  0  0  0  0  0  0
    3.3610    1.4750    0.8370 H   0  0  0  0  0  0  0  0  0  0  0  0
    3.2910    0.0530    1.8680 H   0  0  0  0  0  0  0  0  0  0  0  0
   -0.9650    3.2540    1.2580 H   0  0  0  0  0  0  0  0  0  0  0  0
   -0.7810    1.9440    2.4660 H   0  0  0  0  0  0  0  0  0  0  0  0
   -1.0740    1.5470    0.7530 H   0  0  0  0  0  0  0  0  0  0  0  0
  1  2  1  0  0  0  0
  1  6  1  0  0  0  0
  1  7  1  0  0  0  0
  1  8  1  0  0  0  0
  2  3  1  0  0  0  0
  2  4  1  0  0  0  0
  2  9  1  0  0  0  0
  3 10  1  0  0  0  0
  3 11  1  0  0  0  0
  3 12  1  0  0  0  0
  4  5  1  0  0  0  0
  5 13  1  0  0  0  0
  5 14  1  0  0  0  0
  5 15  1  0  0  0  0
M  END
>  <COMPND>
    mobley_3269565 

>  <AUTHOR>
    GENERATED BY OPEN BABEL 2.3.2

>  <MASTER>
        0    0    0    0    0    0    0    0   15    0   15    0

$$$$
