mobley_8449031.pdb
 OpenBabel09222014463D

 22 21  0  0  0  0  0  0  0  0999 V2000
   -1.0860    0.8640    1.5850 C   0  0  0  0  0  0  0  0  0  0  0  0
   -0.2720   -0.2550    1.0310 C   0  0  0  0  0  0  0  0  0  0  0  0
    0.9010   -0.5170    1.8640 N   0  0  0  0  0  0  0  0  0  0  0  0
    1.7510    0.6710    1.9380 C   0  0  0  0  0  0  0  0  0  0  0  0
    2.9380    0.4000    2.7830 C   0  0  0  0  0  0  0  0  0  0  0  0
    1.6570   -1.6540    1.3400 C   0  0  0  0  0  0  0  0  0  0  0  0
    0.8080   -2.8690    1.3230 C   0  0  0  0  0  0  0  0  0  0  0  0
   -1.9640    1.0570    0.9580 H   0  0  0  0  0  0  0  0  0  0  0  0
   -1.4140    0.6390    2.6060 H   0  0  0  0  0  0  0  0  0  0  0  0
   -0.4850    1.7810    1.6170 H   0  0  0  0  0  0  0  0  0  0  0  0
    0.0820   -0.0100    0.0250 H   0  0  0  0  0  0  0  0  0  0  0  0
   -0.8590   -1.1760    0.9840 H   0  0  0  0  0  0  0  0  0  0  0  0
    2.0340    0.9120    0.9170 H   0  0  0  0  0  0  0  0  0  0  0  0
    1.1350    1.4650    2.3490 H   0  0  0  0  0  0  0  0  0  0  0  0
    3.5880    1.2790    2.8510 H   0  0  0  0  0  0  0  0  0  0  0  0
    2.6460    0.0880    3.7920 H   0  0  0  0  0  0  0  0  0  0  0  0
    3.5170   -0.4150    2.3310 H   0  0  0  0  0  0  0  0  0  0  0  0
    1.9780   -1.3760    0.3400 H   0  0  0  0  0  0  0  0  0  0  0  0
    2.5220   -1.7730    1.9860 H   0  0  0  0  0  0  0  0  0  0  0  0
    1.3570   -3.7330    0.9330 H   0  0  0  0  0  0  0  0  0  0  0  0
    0.4290   -3.1040    2.3240 H   0  0  0  0  0  0  0  0  0  0  0  0
   -0.0530   -2.6910    0.6680 H   0  0  0  0  0  0  0  0  0  0  0  0
  1  2  1  0  0  0  0
  1  8  1  0  0  0  0
  1  9  1  0  0  0  0
  1 10  1  0  0  0  0
  2  3  1  0  0  0  0
  2 11  1  0  0  0  0
  2 12  1  0  0  0  0
  3  4  1  0  0  0  0
  3  6  1  0  0  0  0
  4  5  1  0  0  0  0
  4 13  1  0  0  0  0
  4 14  1  0  0  0  0
  5 15  1  0  0  0  0
  5 16  1  0  0  0  0
  5 17  1  0  0  0  0
  6  7  1  0  0  0  0
  6 18  1  0  0  0  0
  6 19  1  0  0  0  0
  7 20  1  0  0  0  0
  7 21  1  0  0  0  0
  7 22  1  0  0  0  0
M  END
>  <COMPND>
    mobley_8449031 

>  <AUTHOR>
    GENERATED BY OPEN BABEL 2.3.2

>  <MASTER>
        0    0    0    0    0    0    0    0   22    0   22    0

$$$$
