mobley_8118832.pdb
 OpenBabel09222014463D

 10  9  0  0  0  0  0  0  0  0999 V2000
   -0.4680    0.6050    0.7690 C   0  0  0  0  0  0  0  0  0  0  0  0
   -1.5850    0.1860    1.3740 C   0  0  0  0  0  0  0  0  0  0  0  0
   -2.2690   -1.1040    1.0630 C   0  0  0  0  0  0  0  0  0  0  0  0
   -2.3060   -1.8960    2.2410 O   0  0  0  0  0  0  0  0  0  0  0  0
   -0.0040    1.5510    1.0260 H   0  0  0  0  0  0  0  0  0  0  0  0
    0.0000    0.0000    0.0000 H   0  0  0  0  0  0  0  0  0  0  0  0
   -2.0350    0.8200    2.1340 H   0  0  0  0  0  0  0  0  0  0  0  0
   -1.7510   -1.6670    0.2800 H   0  0  0  0  0  0  0  0  0  0  0  0
   -3.2960   -0.9100    0.7390 H   0  0  0  0  0  0  0  0  0  0  0  0
   -2.7550   -2.7250    2.0070 H   0  0  0  0  0  0  0  0  0  0  0  0
  1  2  2  0  0  0  0
  1  5  1  0  0  0  0
  1  6  1  0  0  0  0
  2  3  1  0  0  0  0
  2  7  1  0  0  0  0
  3  4  1  0  0  0  0
  3  8  1  0  0  0  0
  3  9  1  0  0  0  0
  4 10  1  0  0  0  0
M  END
>  <COMPND>
    mobley_8118832 

>  <AUTHOR>
    GENERATED BY OPEN BABEL 2.3.2

>  <MASTER>
        0    0    0    0    0    0    0    0   10    0   10    0

$$$$
