mobley_1328465.pdb
 OpenBabel09222014463D

  8  7  0  0  0  0  0  0  0  0999 V2000
   -0.3310   -0.6040   -0.4080 C   0  0  0  0  0  0  0  0  0  0  0  0
    0.3460    0.6530    0.1310 C   0  0  0  0  0  0  0  0  0  0  0  0
    1.7970    0.2660    1.0890 Cl  0  0  0  0  0  0  0  0  0  0  0  0
   -0.7750    1.6520    1.0890 Cl  0  0  0  0  0  0  0  0  0  0  0  0
   -0.8690   -1.7290    0.8670 Cl  0  0  0  0  0  0  0  0  0  0  0  0
    0.3500   -1.1590   -1.0610 H   0  0  0  0  0  0  0  0  0  0  0  0
   -1.2140   -0.3420   -1.0000 H   0  0  0  0  0  0  0  0  0  0  0  0
    0.6790    1.2710   -0.7070 H   0  0  0  0  0  0  0  0  0  0  0  0
  1  2  1  0  0  0  0
  1  5  1  0  0  0  0
  1  6  1  0  0  0  0
  1  7  1  0  0  0  0
  2  3  1  0  0  0  0
  2  4  1  0  0  0  0
  2  8  1  0  0  0  0
M  END
>  <COMPND>
    mobley_1328465 

>  <AUTHOR>
    GENERATED BY OPEN BABEL 2.3.2

>  <MASTER>
        0    0    0    0    0    0    0    0    8    0    8    0

$$$$
