mobley_718988.pdb
 OpenBabel09222014463D

 25 24  0  0  0  0  0  0  0  0999 V2000
    0.6870   -0.7200    0.0950 C   0  0  0  0  0  0  0  0  0  0  0  0
    0.1580   -2.1000   -0.2610 C   0  0  0  0  0  0  0  0  0  0  0  0
   -0.2980   -2.1670   -1.7190 C   0  0  0  0  0  0  0  0  0  0  0  0
   -0.8290   -3.5590   -2.0700 C   0  0  0  0  0  0  0  0  0  0  0  0
   -1.3010   -3.6830   -3.5210 C   0  0  0  0  0  0  0  0  0  0  0  0
   -1.8320   -5.0750   -3.8720 C   0  0  0  0  0  0  0  0  0  0  0  0
   -2.2870   -5.1380   -5.3300 C   0  0  0  0  0  0  0  0  0  0  0  0
   -2.7890   -6.4700   -5.6470 N   0  0  0  0  0  0  0  0  0  0  0  0
    1.0110   -0.6810    1.1390 H   0  0  0  0  0  0  0  0  0  0  0  0
    1.5380   -0.4500   -0.5400 H   0  0  0  0  0  0  0  0  0  0  0  0
   -0.0950    0.0340   -0.0470 H   0  0  0  0  0  0  0  0  0  0  0  0
    0.9440   -2.8430   -0.0820 H   0  0  0  0  0  0  0  0  0  0  0  0
   -0.6790   -2.3470    0.4030 H   0  0  0  0  0  0  0  0  0  0  0  0
    0.5420   -1.9170   -2.3780 H   0  0  0  0  0  0  0  0  0  0  0  0
   -1.0770   -1.4150   -1.8840 H   0  0  0  0  0  0  0  0  0  0  0  0
   -0.0340   -4.2970   -1.9050 H   0  0  0  0  0  0  0  0  0  0  0  0
   -1.6500   -3.8240   -1.3920 H   0  0  0  0  0  0  0  0  0  0  0  0
   -2.0730   -2.9300   -3.7230 H   0  0  0  0  0  0  0  0  0  0  0  0
   -0.4530   -3.4480   -4.1760 H   0  0  0  0  0  0  0  0  0  0  0  0
   -1.0470   -5.8210   -3.6950 H   0  0  0  0  0  0  0  0  0  0  0  0
   -2.6750   -5.3290   -3.2200 H   0  0  0  0  0  0  0  0  0  0  0  0
   -3.0810   -4.4050   -5.5090 H   0  0  0  0  0  0  0  0  0  0  0  0
   -1.4530   -4.8970   -5.9990 H   0  0  0  0  0  0  0  0  0  0  0  0
   -3.7360   -6.6850   -5.4130 H   0  0  0  0  0  0  0  0  0  0  0  0
   -2.1290   -7.1760   -5.8930 H   0  0  0  0  0  0  0  0  0  0  0  0
  1  2  1  0  0  0  0
  1  9  1  0  0  0  0
  1 10  1  0  0  0  0
  1 11  1  0  0  0  0
  2  3  1  0  0  0  0
  2 12  1  0  0  0  0
  2 13  1  0  0  0  0
  3  4  1  0  0  0  0
  3 14  1  0  0  0  0
  3 15  1  0  0  0  0
  4  5  1  0  0  0  0
  4 16  1  0  0  0  0
  4 17  1  0  0  0  0
  5  6  1  0  0  0  0
  5 18  1  0  0  0  0
  5 19  1  0  0  0  0
  6  7  1  0  0  0  0
  6 20  1  0  0  0  0
  6 21  1  0  0  0  0
  7  8  1  0  0  0  0
  7 22  1  0  0  0  0
  7 23  1  0  0  0  0
  8 24  1  0  0  0  0
  8 25  1  0  0  0  0
M  END
>  <COMPND>
    mobley_718988 

>  <AUTHOR>
    GENERATED BY OPEN BABEL 2.3.2

>  <MASTER>
        0    0    0    0    0    0    0    0   25    0   25    0

$$$$
