mobley_900088.pdb
 OpenBabel09222014463D

 16 15  0  0  0  0  0  0  0  0999 V2000
   -1.6040   -0.3710   -1.0850 C   0  0  0  0  0  0  0  0  0  0  0  0
   -0.5250    0.3840   -0.3470 C   0  0  0  0  0  0  0  0  0  0  0  0
   -0.5700    1.7290   -0.3530 C   0  0  0  0  0  0  0  0  0  0  0  0
    0.5260   -0.3840    0.3460 C   0  0  0  0  0  0  0  0  0  0  0  0
    1.0130   -0.0410    1.5530 C   0  0  0  0  0  0  0  0  0  0  0  0
    1.0850   -1.6150   -0.3280 C   0  0  0  0  0  0  0  0  0  0  0  0
   -1.3110   -0.5510   -2.1260 H   0  0  0  0  0  0  0  0  0  0  0  0
   -2.5510    0.1790   -1.1120 H   0  0  0  0  0  0  0  0  0  0  0  0
   -1.8080   -1.3320   -0.6000 H   0  0  0  0  0  0  0  0  0  0  0  0
    0.1820    2.3180    0.1630 H   0  0  0  0  0  0  0  0  0  0  0  0
   -1.3420    2.2940   -0.8630 H   0  0  0  0  0  0  0  0  0  0  0  0
    1.7850   -0.6060    2.0630 H   0  0  0  0  0  0  0  0  0  0  0  0
    0.6440    0.8340    2.0790 H   0  0  0  0  0  0  0  0  0  0  0  0
    1.9490   -1.3840   -0.9610 H   0  0  0  0  0  0  0  0  0  0  0  0
    1.4200   -2.3460    0.4150 H   0  0  0  0  0  0  0  0  0  0  0  0
    0.3320   -2.0790   -0.9740 H   0  0  0  0  0  0  0  0  0  0  0  0
  1  2  1  0  0  0  0
  1  7  1  0  0  0  0
  1  8  1  0  0  0  0
  1  9  1  0  0  0  0
  2  3  2  0  0  0  0
  2  4  1  0  0  0  0
  3 10  1  0  0  0  0
  3 11  1  0  0  0  0
  4  5  2  0  0  0  0
  4  6  1  0  0  0  0
  5 12  1  0  0  0  0
  5 13  1  0  0  0  0
  6 14  1  0  0  0  0
  6 15  1  0  0  0  0
  6 16  1  0  0  0  0
M  END
>  <COMPND>
    mobley_900088 

>  <AUTHOR>
    GENERATED BY OPEN BABEL 2.3.2

>  <MASTER>
        0    0    0    0    0    0    0    0   16    0   16    0

$$$$
